                                   MODFLOW 6
                U.S. GEOLOGICAL SURVEY MODULAR HYDROLOGIC MODEL
                          GROUNDWATER FLOW MODEL (GWF)
                   VERSION 6.3.0 release candidate 02/06/2022
                               ***DEVELOP MODE***

   MODFLOW 6 compiled Feb 06 2022 02:35:51 with Intel(R) Fortran Intel(R) 64
   Compiler Classic for applications running on Intel(R) 64, Version 2021.5.0
                             Build 20211109_000000

This software is preliminary or provisional and is subject to 
revision. It is being provided to meet the need for timely best 
science. The software has not received final approval by the U.S. 
Geological Survey (USGS). No warranty, expressed or implied, is made 
by the USGS or the U.S. Government as to the functionality of the 
software and related material nor shall the fact of release 
constitute any such warranty. The software is provided on the 
condition that neither the USGS nor the U.S. Government shall be held 
liable for any damages resulting from the authorized or unauthorized 
use of the software.


As a work of the United States Government, this USGS product is 
in the public domain within the United States. You can copy, 
modify, distribute, and perform the work, even for commercial 
purposes, all without asking permission. Additionally, USGS 
waives copyright and related rights in the work worldwide 
through CC0 1.0 Universal Public Domain Dedication 
(https://creativecommons.org/publicdomain/zero/1.0/).

The following GNU Lesser General Public License (LGPL) libraries
are used in this USGS product:

    SPARSKIT version 2.0
      ilut, luson, and qsplit 
      (https://www-users.cse.umn.edu/~saad/software/SPARSKIT/)

    RCM - Reverse Cuthill McKee Ordering
      (https://people.math.sc.edu/Burkardt/f_src/rcm/rcm.html)

    BLAS - Basic Linear Algebra Subprograms Level 1
      (https://people.math.sc.edu/Burkardt/f_src/blas1_d/blas1_d.html)

    SPARSEKIT - Sparse Matrix Utility Package
      amux, dperm, dvperm, rperm, and cperm
      (https://people.sc.fsu.edu/~jburkardt/f77_src/sparsekit/sparsekit.html)

The following BSD-3 License libraries are used in this USGS product:

    Modern Fortran DAG Library
      Copyright (c) 2018, Jacob Williams
      All rights reserved.
      (https://github.com/jacobwilliams/daglib)

MODFLOW 6 compiler options: /O2 /heap-arrays:0 /fpe:0 /traceback /nologo /fpp
/c /module:.\mod_temp\ /object:.\obj_temp\

System command used to initiate simulation:
mf6.exe

MODFLOW was compiled using uniform precision.

Real Variables
  KIND: 8
  TINY (smallest non-zero value):    2.225074-308
  HUGE (largest value):    1.797693+308
  PRECISION: 15
  BIT SIZE: 64

Integer Variables
  KIND: 4
  HUGE (largest value): 2147483647
  BIT SIZE: 32

Long Integer Variables
  KIND: 8
  HUGE (largest value): 9223372036854775807
  BIT SIZE: 64

Logical Variables
  KIND: 4
  BIT SIZE: 32
 

 OPENED local1.dis
 FILE TYPE:DIS6                   UNIT 1005   STATUS:OLD                 
 FORMAT:FORMATTED              ACCESS:SEQUENTIAL          
 ACTION:READ                


 OPENED local1.npf
 FILE TYPE:NPF6                   UNIT 1006   STATUS:OLD                 
 FORMAT:FORMATTED              ACCESS:SEQUENTIAL          
 ACTION:READ                


 OPENED local1.ic
 FILE TYPE:IC6                    UNIT 1007   STATUS:OLD                 
 FORMAT:FORMATTED              ACCESS:SEQUENTIAL          
 ACTION:READ                


 OPENED local1.rcha
 FILE TYPE:RCH6                   UNIT 1008   STATUS:OLD                 
 FORMAT:FORMATTED              ACCESS:SEQUENTIAL          
 ACTION:READ                


 OPENED local1.drn
 FILE TYPE:DRN6                   UNIT 1009   STATUS:OLD                 
 FORMAT:FORMATTED              ACCESS:SEQUENTIAL          
 ACTION:READ                


 OPENED local1.chd
 FILE TYPE:CHD6                   UNIT 1010   STATUS:OLD                 
 FORMAT:FORMATTED              ACCESS:SEQUENTIAL          
 ACTION:READ                


 OPENED local1_0.chd
 FILE TYPE:CHD6                   UNIT 1011   STATUS:OLD                 
 FORMAT:FORMATTED              ACCESS:SEQUENTIAL          
 ACTION:READ                


 OPENED local1.wel
 FILE TYPE:WEL6                   UNIT 1012   STATUS:OLD                 
 FORMAT:FORMATTED              ACCESS:SEQUENTIAL          
 ACTION:READ                


 OPENED local1_0.wel
 FILE TYPE:WEL6                   UNIT 1013   STATUS:OLD                 
 FORMAT:FORMATTED              ACCESS:SEQUENTIAL          
 ACTION:READ                


 OPENED local1_1.wel
 FILE TYPE:WEL6                   UNIT 1014   STATUS:OLD                 
 FORMAT:FORMATTED              ACCESS:SEQUENTIAL          
 ACTION:READ                


 OPENED local1.oc
 FILE TYPE:OC6                    UNIT 1015   STATUS:OLD                 
 FORMAT:FORMATTED              ACCESS:SEQUENTIAL          
 ACTION:READ                

 NAMEFILE OPTIONS:
    FLOWS WILL BE SAVED TO BUDGET FILE SPECIFIED IN OUTPUT CONTROL

 DIS -- STRUCTURED GRID DISCRETIZATION PACKAGE, VERSION 2 : 3/27/2014 - INPUT READ FROM UNIT 1005


 # File generated by Flopy version 3.9.2 on 06/25/2025 at 12:53:07.
 PROCESSING DISCRETIZATION OPTIONS
    MODEL LENGTH UNIT IS METERS
    XORIGIN SPECIFIED AS     1924275.00000000    
    YORIGIN SPECIFIED AS     5598600.00000000    
 END OF DISCRETIZATION OPTIONS
 PROCESSING DISCRETIZATION DIMENSIONS
    NLAY =       8
    NROW =      50
    NCOL =      61
 END OF DISCRETIZATION DIMENSIONS
 PROCESSING GRIDDATA
 END PROCESSING GRIDDATA

 THE SPECIFIED IDOMAIN RESULTS IN A REDUCED NUMBER OF CELLS.
 NUMBER OF USER NODES: 24400
 NUMBER OF NODES IN SOLUTION: 12070



 NPF -- NODE PROPERTY FLOW PACKAGE, VERSION 1, 3/30/2015 INPUT READ FROM UNIT 1006


 # File generated by Flopy version 3.9.2 on 06/25/2025 at 12:53:07.
 PROCESSING NPF OPTIONS
    SPECIFIC DISCHARGE WILL BE CALCULATED AT CELL CENTERS AND WRITTEN TO DATA-SPDIS IN BUDGET FILE WHEN REQUESTED.
 END OF NPF OPTIONS

 WEL   -- WEL PACKAGE, VERSION 8, 2/22/2014 INPUT READ FROM UNIT 1012
 # File generated by Flopy version 3.9.2 on 06/25/2025 at 12:53:07.

 PROCESSING WEL OPTIONS
 END OF WEL OPTIONS

 PROCESSING WEL DIMENSIONS
    MAXBOUND =     407
 END OF WEL DIMENSIONS

 WEL   -- WEL PACKAGE, VERSION 8, 2/22/2014 INPUT READ FROM UNIT 1013
 # File generated by Flopy version 3.9.2 on 06/25/2025 at 12:53:07.

 PROCESSING WEL OPTIONS
 END OF WEL OPTIONS

 PROCESSING WEL DIMENSIONS
    MAXBOUND =     330
 END OF WEL DIMENSIONS

 WEL   -- WEL PACKAGE, VERSION 8, 2/22/2014 INPUT READ FROM UNIT 1014
 # File generated by Flopy version 3.9.2 on 06/25/2025 at 12:53:07.

 PROCESSING WEL OPTIONS
 END OF WEL OPTIONS

 PROCESSING WEL DIMENSIONS
    MAXBOUND =     282
 END OF WEL DIMENSIONS

 DRN   -- DRN PACKAGE, VERSION 8, 2/22/2014 INPUT READ FROM UNIT 1009
 # File generated by Flopy version 3.9.2 on 06/25/2025 at 12:53:07.

 PROCESSING DRN OPTIONS
 END OF DRN OPTIONS

 PROCESSING DRN DIMENSIONS
    MAXBOUND =     136
 END OF DRN DIMENSIONS

 RCH   -- RCH PACKAGE, VERSION 8, 2/22/2014 INPUT READ FROM UNIT 1008
 # File generated by Flopy version 3.9.2 on 06/25/2025 at 12:53:07.

 PROCESSING RCH OPTIONS
    RECHARGE INPUT WILL BE READ AS ARRAY(S).
 END OF RCHA OPTIONS

 CHD   -- CHD PACKAGE, VERSION 8, 2/22/2014 INPUT READ FROM UNIT 1010
 # File generated by Flopy version 3.9.2 on 06/25/2025 at 12:53:07.

 PROCESSING CHD OPTIONS
    FLOWS WILL BE SAVED TO BUDGET FILE SPECIFIED IN OUTPUT CONTROL
 END OF CHD OPTIONS

 PROCESSING CHD DIMENSIONS
    MAXBOUND =      32
 END OF CHD DIMENSIONS

 CHD   -- CHD PACKAGE, VERSION 8, 2/22/2014 INPUT READ FROM UNIT 1011
 # File generated by Flopy version 3.9.2 on 06/25/2025 at 12:53:07.

 PROCESSING CHD OPTIONS
    FLOWS WILL BE SAVED TO BUDGET FILE SPECIFIED IN OUTPUT CONTROL
 END OF CHD OPTIONS

 PROCESSING CHD DIMENSIONS
    MAXBOUND =    1210
 END OF CHD DIMENSIONS

 IC -- INITIAL CONDITIONS PACKAGE, VERSION 8, 3/28/2015 INPUT READ FROM UNIT 1007
 # File generated by Flopy version 3.9.2 on 06/25/2025 at 12:53:07.
 PROCESSING IC OPTIONS
 END OF IC OPTIONS
 PROCESSING GRIDDATA
 END PROCESSING GRIDDATA
 PROCESSING GRIDDATA

                ICELLTYPE = 0
 K33 not provided.  Assuming K33 = K.
 K22 not provided.  Assuming K22 = K.
 END PROCESSING GRIDDATA
    BINARY GRID INFORMATION WILL BE WRITTEN TO:
      UNIT NUMBER: 1017
      FILE NAME: C:\Users\rccuser\Documents\b_model_repos\rapid-gwm-build\examples\manual_builds\models\local1\pest\local1\local1.dis.grb

 OPENED C:\Users\rccuser\Documents\b_model_repos\rapid-gwm-build\examples\manual_builds\models\local1\pest\local1\local1.dis.grb
 FILE TYPE:DATA(BINARY)   UNIT 1017   STATUS:REPLACE             
 FORMAT:UNFORMATTED            ACCESS:STREAM              
 ACTION:READWRITE           

      THE LAST TIME STEP WILL BE PRINTED
      THE LAST TIME STEP WILL BE PRINTED
 # File generated by Flopy version 3.9.2 on 06/25/2025 at 12:53:07.

 PROCESSING OC OPTIONS

    BUDGET INFORMATION WILL BE WRITTEN TO:
      UNIT NUMBER: 1018
      FILE NAME: local1.cbc

 OPENED local1.cbc
 FILE TYPE:DATA(BINARY)   UNIT 1018   STATUS:REPLACE             
 FORMAT:UNFORMATTED            ACCESS:STREAM              
 ACTION:READWRITE           

    HEAD INFORMATION WILL BE WRITTEN TO:
      UNIT NUMBER: 1019
      FILE NAME: local1.hds

 OPENED local1.hds
 FILE TYPE:DATA(BINARY)   UNIT 1019   STATUS:REPLACE             
 FORMAT:UNFORMATTED            ACCESS:STREAM              
 ACTION:READWRITE           

 END OF OC OPTIONS

start timestep kper="1" kstp="1" mode="normal"


 BEGIN READING OUTPUT CONTROL FOR STRESS PERIOD 1
      ALL TIME STEPS WILL BE SAVED
      ALL TIME STEPS WILL BE SAVED

 END READING OUTPUT CONTROL FOR STRESS PERIOD 1

 OPENED local1.wel_mbr_stress_period_data.txt
 FILE TYPE:OPEN/CLOSE   UNIT 1020   STATUS:OLD                 
 FORMAT:FORMATTED              ACCESS:SEQUENTIAL          
 ACTION:READ                


 OPENED local1.wel_influx_stress_period_data.txt
 FILE TYPE:OPEN/CLOSE   UNIT 1021   STATUS:OLD                 
 FORMAT:FORMATTED              ACCESS:SEQUENTIAL          
 ACTION:READ                


 OPENED local1.wel_outflux_stress_period_data.txt
 FILE TYPE:OPEN/CLOSE   UNIT 1022   STATUS:OLD                 
 FORMAT:FORMATTED              ACCESS:SEQUENTIAL          
 ACTION:READ                


 OPENED local1.drn_riv_stress_period_data.txt
 FILE TYPE:OPEN/CLOSE   UNIT 1023   STATUS:OLD                 
 FORMAT:FORMATTED              ACCESS:SEQUENTIAL          
 ACTION:READ                


 OPENED local1.rcha_recharge.txt
 FILE TYPE:OPEN/CLOSE   UNIT 1024   STATUS:OLD                 
 FORMAT:FORMATTED              ACCESS:SEQUENTIAL          
 ACTION:READ                


 OPENED local1.chd_conf_stress_period_data.txt
 FILE TYPE:OPEN/CLOSE   UNIT 1025   STATUS:OLD                 
 FORMAT:FORMATTED              ACCESS:SEQUENTIAL          
 ACTION:READ                


 SLN_1 INNER ITERATION SUMMARY
 --------------------------------------------------------------------------------------------------------------------------------------
      TOTAL      OUTER      INNER                                                            MAXIMUM                                   
  ITERATION  ITERATION  ITERATION  MAXIMUM CHANGE      MAXIMUM CHANGE MODEL-(CELLID)        RESIDUAL    MAXIMUM RESIDUAL MODEL-(CELLID)
 --------------------------------------------------------------------------------------------------------------------------------------
          1          1          1      -5.7565663                    1_GWF-(1,36,17)       21.361823                    1_GWF-(1,26,38)
          2          1          2      -1.1952427                    1_GWF-(1,34,33)       4.2756024                    1_GWF-(1,36,37)
          3          1          3     -0.58435461                    1_GWF-(1,24,27)       2.1792097                    1_GWF-(1,24,24)
          4          1          4     -0.54277282                    1_GWF-(1,23,24)       1.3485717                     1_GWF-(1,9,35)
          5          1          5     -0.39668198                    1_GWF-(1,23,21)       1.1632322                     1_GWF-(1,3,33)
          6          1          6     -0.46061775                     1_GWF-(1,4,31)      0.86043175                     1_GWF-(1,3,34)
          7          1          7     -0.43086918                     1_GWF-(1,3,32)      0.44591759                    1_GWF-(5,17,31)
          8          1          8     -0.31191526                     1_GWF-(1,3,32)      0.33955637                     1_GWF-(5,3,28)
          9          1          9     -0.20938905                     1_GWF-(3,3,32)      0.37612779                    1_GWF-(5,18,33)
         10          1         10     -0.14442093                     1_GWF-(4,3,31)      0.23066497                     1_GWF-(5,3,27)
         11          1         11     -0.42972366                     1_GWF-(5,3,30)      0.30595750                    1_GWF-(4,18,17)
         12          1         12      0.31785786                     1_GWF-(5,3,30)      0.29236898                    1_GWF-(4,18,18)
         13          1         13     -0.76855001                     1_GWF-(5,4,30)      0.15186042                     1_GWF-(5,39,3)
         14          1         14     -0.22964087                     1_GWF-(5,4,32)      0.16715260                    1_GWF-(4,20,17)
         15          1         15      0.27318268                     1_GWF-(5,3,30)      0.17389503                    1_GWF-(4,17,31)
         16          1         16 -3.35263763E-02                    1_GWF-(4,18,58)  6.63790086E-02                    1_GWF-(5,40,40)
         17          2          1      -2.8283627                    1_GWF-(1,14,44)       6.2762368                    1_GWF-(1,14,43)
         18          2          2     -0.72144006                     1_GWF-(1,4,58)       2.3816229                     1_GWF-(1,4,58)
         19          2          3     -0.53704032                     1_GWF-(1,4,57)     -0.64086893                    1_GWF-(1,15,18)
         20          2          4     -0.16561434                     1_GWF-(1,4,56)     -0.27173444                    1_GWF-(1,15,18)
         21          2          5 -5.18294199E-02                     1_GWF-(4,4,59)      0.15505726                     1_GWF-(5,5,58)
         22          2          6     -0.10612062                     1_GWF-(4,4,59)  7.70871473E-02                    1_GWF-(5,11,57)
         23          2          7 -7.39116078E-02                     1_GWF-(5,4,59)     -0.15407813                    1_GWF-(1,17,18)
         24          2          8 -6.07671686E-02                     1_GWF-(5,5,58)      0.12336227                    1_GWF-(1,17,18)
         25          2          9 -1.94418730E-03                    1_GWF-(4,19,59)  6.92838826E-02                    1_GWF-(5,19,59)
         26          3          1      -1.2756607                     1_GWF-(1,8,51)       3.7621184                     1_GWF-(1,8,51)
         27          3          2     -0.46663173                     1_GWF-(1,8,47)       1.2412596                     1_GWF-(1,5,48)
         28          3          3     -0.40618824                     1_GWF-(1,4,48)      0.57792681                     1_GWF-(1,3,44)
         29          3          4     -0.68700655                     1_GWF-(1,3,46)     -0.72324508                     1_GWF-(1,5,47)
         30          3          5      0.38968992                     1_GWF-(1,4,48)      0.16747118                    1_GWF-(1,14,43)
         31          3          6 -5.33814359E-02                     1_GWF-(1,4,47)      0.12212303                    1_GWF-(5,11,53)
         32          3          7 -4.17469044E-02                     1_GWF-(3,2,45)  9.90974943E-02                    1_GWF-(5,11,53)
         33          4          1 -4.61940889E-02                     1_GWF-(6,8,61)      0.19215209                     1_GWF-(5,9,54)
         34          4          2 -3.25267288E-02                     1_GWF-(4,9,57)      0.16186100                     1_GWF-(4,6,36)
         35          4          3     -0.12095244                     1_GWF-(4,3,30)      0.20873711                     1_GWF-(5,7,38)
         36          4          4     -0.12830869                     1_GWF-(5,7,49)      0.12561992                     1_GWF-(5,7,38)
         37          4          5 -4.22125463E-02                    1_GWF-(4,19,59) -6.32659764E-02                     1_GWF-(5,3,29)
         38          5          1  6.72532817E-02                     1_GWF-(6,2,33)     -0.30468873                     1_GWF-(5,7,35)
         39          5          2 -1.47424818E-02                     1_GWF-(4,8,28)  7.88929063E-02                     1_GWF-(5,7,29)
 --------------------------------------------------------------------------------------------------------------------------------------


 UBDSV1 SAVING     FLOW-JA-FACE ON UNIT   1018 AT TIME STEP      1, STRESS PERIOD      1
 UBDSV06 SAVING       DATA-SPDIS IN MODEL LOCAL1           PACKAGE NPF             CONNECTED TO MODEL LOCAL1           PACKAGE NPF              ON UNIT   1018 AT TIME STEP      1, STRESS PERIOD      1
 UBDSV06 SAVING              WEL IN MODEL LOCAL1           PACKAGE LOCAL1          CONNECTED TO MODEL LOCAL1           PACKAGE MBR              ON UNIT   1018 AT TIME STEP      1, STRESS PERIOD      1
 UBDSV06 SAVING              WEL IN MODEL LOCAL1           PACKAGE LOCAL1          CONNECTED TO MODEL LOCAL1           PACKAGE INFLUX           ON UNIT   1018 AT TIME STEP      1, STRESS PERIOD      1
 UBDSV06 SAVING              WEL IN MODEL LOCAL1           PACKAGE LOCAL1          CONNECTED TO MODEL LOCAL1           PACKAGE OUTFLUX          ON UNIT   1018 AT TIME STEP      1, STRESS PERIOD      1
 UBDSV06 SAVING              DRN IN MODEL LOCAL1           PACKAGE LOCAL1          CONNECTED TO MODEL LOCAL1           PACKAGE DRN_R            ON UNIT   1018 AT TIME STEP      1, STRESS PERIOD      1
 UBDSV06 SAVING             RCHA IN MODEL LOCAL1           PACKAGE LOCAL1          CONNECTED TO MODEL LOCAL1           PACKAGE RCH              ON UNIT   1018 AT TIME STEP      1, STRESS PERIOD      1
 UBDSV06 SAVING              CHD IN MODEL LOCAL1           PACKAGE LOCAL1          CONNECTED TO MODEL LOCAL1           PACKAGE CHD_PW           ON UNIT   1018 AT TIME STEP      1, STRESS PERIOD      1
 UBDSV06 SAVING              CHD IN MODEL LOCAL1           PACKAGE LOCAL1          CONNECTED TO MODEL LOCAL1           PACKAGE CHD_CONF         ON UNIT   1018 AT TIME STEP      1, STRESS PERIOD      1

 HEAD WILL BE SAVED ON UNIT 1019 AT END OF TIME STEP    1, STRESS PERIOD    1


  VOLUME BUDGET FOR ENTIRE MODEL AT END OF TIME STEP    1, STRESS PERIOD   1
  ---------------------------------------------------------------------------------------------------

     CUMULATIVE VOLUME      L**3       RATES FOR THIS TIME STEP      L**3/T          PACKAGE NAME    
     ------------------                 ------------------------                     ----------------

           IN:                                      IN:
           ---                                      ---
                 WEL =         814.0000                   WEL =         814.0000     MBR                              
                 WEL =         330.0000                   WEL =         330.0000     INFLUX                           
                 WEL =           0.0000                   WEL =           0.0000     OUTFLUX                          
                 DRN =           0.0000                   DRN =           0.0000     DRN_R                            
                RCHA =          96.7500                  RCHA =          96.7500     RCH                              
                 CHD =         225.1047                   CHD =         225.1047     CHD_PW                           
                 CHD =         330.3082                   CHD =         330.3082     CHD_CONF                         

            TOTAL IN =        1796.1630              TOTAL IN =        1796.1630

          OUT:                                     OUT:
          ----                                     ----
                 WEL =           0.0000                   WEL =           0.0000     MBR                              
                 WEL =           0.0000                   WEL =           0.0000     INFLUX                           
                 WEL =         282.0000                   WEL =         282.0000     OUTFLUX                          
                 DRN =        1241.2999                   DRN =        1241.2999     DRN_R                            
                RCHA =           0.0000                  RCHA =           0.0000     RCH                              
                 CHD =         304.2417                   CHD =         304.2417     CHD_PW                           
                 CHD =           0.0000                   CHD =           0.0000     CHD_CONF                         

           TOTAL OUT =        1827.5416             TOTAL OUT =        1827.5416

            IN - OUT =         -31.3786              IN - OUT =         -31.3786

 PERCENT DISCREPANCY =          -1.73     PERCENT DISCREPANCY =          -1.73




         TIME SUMMARY AT END OF TIME STEP    1 IN STRESS PERIOD    1
                    SECONDS     MINUTES      HOURS       DAYS        YEARS
                    -----------------------------------------------------------
   TIME STEP LENGTH  86400.      1440.0      24.000      1.0000     2.73785E-03
 STRESS PERIOD TIME  86400.      1440.0      24.000      1.0000     2.73785E-03
         TOTAL TIME  86400.      1440.0      24.000      1.0000     2.73785E-03


end timestep

