                                   MODFLOW 6
                U.S. GEOLOGICAL SURVEY MODULAR HYDROLOGIC MODEL
                          GROUNDWATER FLOW MODEL (GWF)
                   VERSION 6.3.0 release candidate 02/06/2022
                               ***DEVELOP MODE***

   MODFLOW 6 compiled Feb 06 2022 02:35:51 with Intel(R) Fortran Intel(R) 64
   Compiler Classic for applications running on Intel(R) 64, Version 2021.5.0
                             Build 20211109_000000

This software is preliminary or provisional and is subject to 
revision. It is being provided to meet the need for timely best 
science. The software has not received final approval by the U.S. 
Geological Survey (USGS). No warranty, expressed or implied, is made 
by the USGS or the U.S. Government as to the functionality of the 
software and related material nor shall the fact of release 
constitute any such warranty. The software is provided on the 
condition that neither the USGS nor the U.S. Government shall be held 
liable for any damages resulting from the authorized or unauthorized 
use of the software.


As a work of the United States Government, this USGS product is 
in the public domain within the United States. You can copy, 
modify, distribute, and perform the work, even for commercial 
purposes, all without asking permission. Additionally, USGS 
waives copyright and related rights in the work worldwide 
through CC0 1.0 Universal Public Domain Dedication 
(https://creativecommons.org/publicdomain/zero/1.0/).

The following GNU Lesser General Public License (LGPL) libraries
are used in this USGS product:

    SPARSKIT version 2.0
      ilut, luson, and qsplit 
      (https://www-users.cse.umn.edu/~saad/software/SPARSKIT/)

    RCM - Reverse Cuthill McKee Ordering
      (https://people.math.sc.edu/Burkardt/f_src/rcm/rcm.html)

    BLAS - Basic Linear Algebra Subprograms Level 1
      (https://people.math.sc.edu/Burkardt/f_src/blas1_d/blas1_d.html)

    SPARSEKIT - Sparse Matrix Utility Package
      amux, dperm, dvperm, rperm, and cperm
      (https://people.sc.fsu.edu/~jburkardt/f77_src/sparsekit/sparsekit.html)

The following BSD-3 License libraries are used in this USGS product:

    Modern Fortran DAG Library
      Copyright (c) 2018, Jacob Williams
      All rights reserved.
      (https://github.com/jacobwilliams/daglib)

MODFLOW 6 compiler options: /O2 /heap-arrays:0 /fpe:0 /traceback /nologo /fpp
/c /module:.\mod_temp\ /object:.\obj_temp\

System command used to initiate simulation:
mf6.exe

MODFLOW was compiled using uniform precision.

Real Variables
  KIND: 8
  TINY (smallest non-zero value):    2.225074-308
  HUGE (largest value):    1.797693+308
  PRECISION: 15
  BIT SIZE: 64

Integer Variables
  KIND: 4
  HUGE (largest value): 2147483647
  BIT SIZE: 32

Long Integer Variables
  KIND: 8
  HUGE (largest value): 9223372036854775807
  BIT SIZE: 64

Logical Variables
  KIND: 4
  BIT SIZE: 32
 

 OPENED local1.dis
 FILE TYPE:DIS6                   UNIT 1005   STATUS:OLD                 
 FORMAT:FORMATTED              ACCESS:SEQUENTIAL          
 ACTION:READ                


 OPENED local1.npf
 FILE TYPE:NPF6                   UNIT 1006   STATUS:OLD                 
 FORMAT:FORMATTED              ACCESS:SEQUENTIAL          
 ACTION:READ                


 OPENED local1.ic
 FILE TYPE:IC6                    UNIT 1007   STATUS:OLD                 
 FORMAT:FORMATTED              ACCESS:SEQUENTIAL          
 ACTION:READ                


 OPENED local1.rcha
 FILE TYPE:RCH6                   UNIT 1008   STATUS:OLD                 
 FORMAT:FORMATTED              ACCESS:SEQUENTIAL          
 ACTION:READ                


 OPENED local1.drn
 FILE TYPE:DRN6                   UNIT 1009   STATUS:OLD                 
 FORMAT:FORMATTED              ACCESS:SEQUENTIAL          
 ACTION:READ                


 OPENED local1.chd
 FILE TYPE:CHD6                   UNIT 1010   STATUS:OLD                 
 FORMAT:FORMATTED              ACCESS:SEQUENTIAL          
 ACTION:READ                


 OPENED local1_0.chd
 FILE TYPE:CHD6                   UNIT 1011   STATUS:OLD                 
 FORMAT:FORMATTED              ACCESS:SEQUENTIAL          
 ACTION:READ                


 OPENED local1.wel
 FILE TYPE:WEL6                   UNIT 1012   STATUS:OLD                 
 FORMAT:FORMATTED              ACCESS:SEQUENTIAL          
 ACTION:READ                


 OPENED local1_0.wel
 FILE TYPE:WEL6                   UNIT 1013   STATUS:OLD                 
 FORMAT:FORMATTED              ACCESS:SEQUENTIAL          
 ACTION:READ                


 OPENED local1_1.wel
 FILE TYPE:WEL6                   UNIT 1014   STATUS:OLD                 
 FORMAT:FORMATTED              ACCESS:SEQUENTIAL          
 ACTION:READ                


 OPENED local1.oc
 FILE TYPE:OC6                    UNIT 1015   STATUS:OLD                 
 FORMAT:FORMATTED              ACCESS:SEQUENTIAL          
 ACTION:READ                

 NAMEFILE OPTIONS:
    FLOWS WILL BE SAVED TO BUDGET FILE SPECIFIED IN OUTPUT CONTROL

 DIS -- STRUCTURED GRID DISCRETIZATION PACKAGE, VERSION 2 : 3/27/2014 - INPUT READ FROM UNIT 1005


 # File generated by Flopy version 3.9.2 on 06/25/2025 at 12:53:07.
 PROCESSING DISCRETIZATION OPTIONS
    MODEL LENGTH UNIT IS METERS
    XORIGIN SPECIFIED AS     1924275.00000000    
    YORIGIN SPECIFIED AS     5598600.00000000    
 END OF DISCRETIZATION OPTIONS
 PROCESSING DISCRETIZATION DIMENSIONS
    NLAY =       8
    NROW =      50
    NCOL =      61
 END OF DISCRETIZATION DIMENSIONS
 PROCESSING GRIDDATA
 END PROCESSING GRIDDATA

 THE SPECIFIED IDOMAIN RESULTS IN A REDUCED NUMBER OF CELLS.
 NUMBER OF USER NODES: 24400
 NUMBER OF NODES IN SOLUTION: 12070



 NPF -- NODE PROPERTY FLOW PACKAGE, VERSION 1, 3/30/2015 INPUT READ FROM UNIT 1006


 # File generated by Flopy version 3.9.2 on 06/25/2025 at 12:53:07.
 PROCESSING NPF OPTIONS
    SPECIFIC DISCHARGE WILL BE CALCULATED AT CELL CENTERS AND WRITTEN TO DATA-SPDIS IN BUDGET FILE WHEN REQUESTED.
 END OF NPF OPTIONS

 WEL   -- WEL PACKAGE, VERSION 8, 2/22/2014 INPUT READ FROM UNIT 1012
 # File generated by Flopy version 3.9.2 on 06/25/2025 at 12:53:07.

 PROCESSING WEL OPTIONS
 END OF WEL OPTIONS

 PROCESSING WEL DIMENSIONS
    MAXBOUND =     407
 END OF WEL DIMENSIONS

 WEL   -- WEL PACKAGE, VERSION 8, 2/22/2014 INPUT READ FROM UNIT 1013
 # File generated by Flopy version 3.9.2 on 06/25/2025 at 12:53:07.

 PROCESSING WEL OPTIONS
 END OF WEL OPTIONS

 PROCESSING WEL DIMENSIONS
    MAXBOUND =     330
 END OF WEL DIMENSIONS

 WEL   -- WEL PACKAGE, VERSION 8, 2/22/2014 INPUT READ FROM UNIT 1014
 # File generated by Flopy version 3.9.2 on 06/25/2025 at 12:53:07.

 PROCESSING WEL OPTIONS
 END OF WEL OPTIONS

 PROCESSING WEL DIMENSIONS
    MAXBOUND =     282
 END OF WEL DIMENSIONS

 DRN   -- DRN PACKAGE, VERSION 8, 2/22/2014 INPUT READ FROM UNIT 1009
 # File generated by Flopy version 3.9.2 on 06/25/2025 at 12:53:07.

 PROCESSING DRN OPTIONS
 END OF DRN OPTIONS

 PROCESSING DRN DIMENSIONS
    MAXBOUND =     136
 END OF DRN DIMENSIONS

 RCH   -- RCH PACKAGE, VERSION 8, 2/22/2014 INPUT READ FROM UNIT 1008
 # File generated by Flopy version 3.9.2 on 06/25/2025 at 12:53:07.

 PROCESSING RCH OPTIONS
    RECHARGE INPUT WILL BE READ AS ARRAY(S).
 END OF RCHA OPTIONS

 CHD   -- CHD PACKAGE, VERSION 8, 2/22/2014 INPUT READ FROM UNIT 1010
 # File generated by Flopy version 3.9.2 on 06/25/2025 at 12:53:07.

 PROCESSING CHD OPTIONS
    FLOWS WILL BE SAVED TO BUDGET FILE SPECIFIED IN OUTPUT CONTROL
 END OF CHD OPTIONS

 PROCESSING CHD DIMENSIONS
    MAXBOUND =      32
 END OF CHD DIMENSIONS

 CHD   -- CHD PACKAGE, VERSION 8, 2/22/2014 INPUT READ FROM UNIT 1011
 # File generated by Flopy version 3.9.2 on 06/25/2025 at 12:53:07.

 PROCESSING CHD OPTIONS
    FLOWS WILL BE SAVED TO BUDGET FILE SPECIFIED IN OUTPUT CONTROL
 END OF CHD OPTIONS

 PROCESSING CHD DIMENSIONS
    MAXBOUND =    1210
 END OF CHD DIMENSIONS

 IC -- INITIAL CONDITIONS PACKAGE, VERSION 8, 3/28/2015 INPUT READ FROM UNIT 1007
 # File generated by Flopy version 3.9.2 on 06/25/2025 at 12:53:07.
 PROCESSING IC OPTIONS
 END OF IC OPTIONS
 PROCESSING GRIDDATA
 END PROCESSING GRIDDATA
 PROCESSING GRIDDATA

                ICELLTYPE = 0
 K33 not provided.  Assuming K33 = K.
 K22 not provided.  Assuming K22 = K.
 END PROCESSING GRIDDATA
    BINARY GRID INFORMATION WILL BE WRITTEN TO:
      UNIT NUMBER: 1017
      FILE NAME: C:\Users\rccuser\Documents\b_model_repos\rapid-gwm-build\examples\manual_builds\models\local1\pest\local1_template\local1.dis.grb

 OPENED C:\Users\rccuser\Documents\b_model_repos\rapid-gwm-build\examples\manual_builds\models\local1\pest\local1_template\local1.dis.grb
 FILE TYPE:DATA(BINARY)   UNIT 1017   STATUS:REPLACE             
 FORMAT:UNFORMATTED            ACCESS:STREAM              
 ACTION:READWRITE           

      THE LAST TIME STEP WILL BE PRINTED
      THE LAST TIME STEP WILL BE PRINTED
 # File generated by Flopy version 3.9.2 on 06/25/2025 at 12:53:07.

 PROCESSING OC OPTIONS

    BUDGET INFORMATION WILL BE WRITTEN TO:
      UNIT NUMBER: 1018
      FILE NAME: local1.cbc

 OPENED local1.cbc
 FILE TYPE:DATA(BINARY)   UNIT 1018   STATUS:REPLACE             
 FORMAT:UNFORMATTED            ACCESS:STREAM              
 ACTION:READWRITE           

    HEAD INFORMATION WILL BE WRITTEN TO:
      UNIT NUMBER: 1019
      FILE NAME: local1.hds

 OPENED local1.hds
 FILE TYPE:DATA(BINARY)   UNIT 1019   STATUS:REPLACE             
 FORMAT:UNFORMATTED            ACCESS:STREAM              
 ACTION:READWRITE           

 END OF OC OPTIONS

start timestep kper="1" kstp="1" mode="normal"


 BEGIN READING OUTPUT CONTROL FOR STRESS PERIOD 1
      ALL TIME STEPS WILL BE SAVED
      ALL TIME STEPS WILL BE SAVED

 END READING OUTPUT CONTROL FOR STRESS PERIOD 1

 OPENED local1.wel_mbr_stress_period_data.txt
 FILE TYPE:OPEN/CLOSE   UNIT 1020   STATUS:OLD                 
 FORMAT:FORMATTED              ACCESS:SEQUENTIAL          
 ACTION:READ                


 OPENED local1.wel_influx_stress_period_data.txt
 FILE TYPE:OPEN/CLOSE   UNIT 1021   STATUS:OLD                 
 FORMAT:FORMATTED              ACCESS:SEQUENTIAL          
 ACTION:READ                


 OPENED local1.wel_outflux_stress_period_data.txt
 FILE TYPE:OPEN/CLOSE   UNIT 1022   STATUS:OLD                 
 FORMAT:FORMATTED              ACCESS:SEQUENTIAL          
 ACTION:READ                


 OPENED local1.drn_riv_stress_period_data.txt
 FILE TYPE:OPEN/CLOSE   UNIT 1023   STATUS:OLD                 
 FORMAT:FORMATTED              ACCESS:SEQUENTIAL          
 ACTION:READ                


 OPENED local1.rcha_recharge.txt
 FILE TYPE:OPEN/CLOSE   UNIT 1024   STATUS:OLD                 
 FORMAT:FORMATTED              ACCESS:SEQUENTIAL          
 ACTION:READ                


 OPENED local1.chd_conf_stress_period_data.txt
 FILE TYPE:OPEN/CLOSE   UNIT 1025   STATUS:OLD                 
 FORMAT:FORMATTED              ACCESS:SEQUENTIAL          
 ACTION:READ                


 SLN_1 INNER ITERATION SUMMARY
 --------------------------------------------------------------------------------------------------------------------------------------
      TOTAL      OUTER      INNER                                                            MAXIMUM                                   
  ITERATION  ITERATION  ITERATION  MAXIMUM CHANGE      MAXIMUM CHANGE MODEL-(CELLID)        RESIDUAL    MAXIMUM RESIDUAL MODEL-(CELLID)
 --------------------------------------------------------------------------------------------------------------------------------------
          1          1          1      -5.7565646                    1_GWF-(1,36,17)       21.361809                    1_GWF-(1,26,38)
          2          1          2      -1.1945162                    1_GWF-(1,34,33)       4.2774806                    1_GWF-(1,36,37)
          3          1          3     -0.58319390                    1_GWF-(1,24,27)       2.1827707                    1_GWF-(1,24,24)
          4          1          4     -0.53959241                    1_GWF-(1,23,24)       1.3179656                    1_GWF-(1,23,19)
          5          1          5     -0.39261652                    1_GWF-(1,23,21)       1.0891757                     1_GWF-(1,3,32)
          6          1          6     -0.41670283                     1_GWF-(1,4,31)      0.81884820                     1_GWF-(1,3,34)
          7          1          7     -0.38443455                     1_GWF-(1,3,32)      0.41185167                     1_GWF-(1,3,34)
          8          1          8     -0.26761557                     1_GWF-(1,3,32)      0.29698999                     1_GWF-(5,3,28)
          9          1          9     -0.17967432                     1_GWF-(1,3,32)      0.30696630                    1_GWF-(5,18,33)
         10          1         10     -0.11212755                     1_GWF-(4,3,29)      0.20525953                     1_GWF-(5,3,27)
         11          1         11     -0.31996889                     1_GWF-(5,3,28)      0.22131581                    1_GWF-(4,18,17)
         12          1         12     -0.14922495                     1_GWF-(5,3,28)     -0.10406768                     1_GWF-(1,3,34)
         13          1         13  1.88213608E-02                     1_GWF-(1,3,32)      0.15231077                    1_GWF-(4,18,18)
         14          1         14     -0.37046209                     1_GWF-(5,4,28)      0.13440880                     1_GWF-(5,39,3)
         15          1         15      0.17510732                     1_GWF-(4,3,28)      0.16914034                    1_GWF-(4,17,31)
         16          1         16 -2.81343161E-02                     1_GWF-(5,4,27)  4.99697863E-02                    1_GWF-(5,32,13)
         17          2          1      -2.7841844                    1_GWF-(1,14,44)       6.1795850                    1_GWF-(1,14,43)
         18          2          2     -0.50410055                     1_GWF-(1,4,57)       1.8481706                     1_GWF-(1,4,58)
         19          2          3     -0.38213168                     1_GWF-(1,4,57)      0.55721203                     1_GWF-(1,4,58)
         20          2          4     -0.14849532                     1_GWF-(1,4,57)      0.20561719                    1_GWF-(1,16,18)
         21          2          5 -4.47503194E-02                     1_GWF-(4,4,59)      0.14194403                    1_GWF-(1,16,18)
         22          2          6 -6.79103781E-02                     1_GWF-(4,4,59)  8.29227137E-02                     1_GWF-(5,6,56)
         23          3          1      -1.0496263                     1_GWF-(1,8,51)       2.8832274                     1_GWF-(1,8,51)
         24          3          2     -0.33633328                     1_GWF-(1,8,48)      0.99292734                     1_GWF-(1,5,48)
         25          3          3     -0.31374556                     1_GWF-(1,5,48)      0.47039141                     1_GWF-(1,3,44)
         26          3          4      0.44544804                     1_GWF-(1,3,46)       1.1703726                     1_GWF-(1,5,46)
         27          3          5     -0.72678360                     1_GWF-(1,3,45)      0.13671094                     1_GWF-(1,4,51)
         28          3          6 -4.86885451E-02                     1_GWF-(1,4,47)      0.12375776                     1_GWF-(5,5,59)
         29          3          7 -4.87369140E-02                     1_GWF-(4,4,49)      0.11942858                     1_GWF-(5,5,59)
         30          3          8 -5.98221012E-02                     1_GWF-(5,4,49)      0.13969155                     1_GWF-(5,5,59)
         31          3          9 -7.92512984E-02                     1_GWF-(5,5,49)  6.99496504E-02                     1_GWF-(5,5,59)
         32          4          1     -0.94582911                     1_GWF-(1,8,51)       2.3920126                     1_GWF-(1,8,51)
         33          4          2     -0.30020853                     1_GWF-(1,8,48)      0.89543059                     1_GWF-(1,5,48)
         34          4          3     -0.28019072                     1_GWF-(1,5,48)      0.42497961                     1_GWF-(1,3,44)
         35          4          4     -0.54751179                     1_GWF-(1,3,46)     -0.59823786                     1_GWF-(1,5,48)
         36          4          5      0.31920901                     1_GWF-(1,4,48)      0.12634672                     1_GWF-(1,5,48)
         37          4          6 -4.33997285E-02                     1_GWF-(1,4,47)      0.11979146                     1_GWF-(5,5,59)
         38          4          7 -4.37742537E-02                     1_GWF-(4,4,49)      0.12050664                     1_GWF-(5,5,59)
         39          4          8 -6.15711789E-02                     1_GWF-(5,4,49)      0.12246829                     1_GWF-(5,5,59)
         40          4          9 -7.51964699E-02                     1_GWF-(5,5,49)  4.85255062E-02                    1_GWF-(5,19,59)
         41          5          1     -0.85204208                     1_GWF-(1,8,51)       1.9617197                     1_GWF-(1,8,51)
         42          5          2     -0.26799014                     1_GWF-(1,8,48)      0.80815107                     1_GWF-(1,5,48)
         43          5          3     -0.25061324                     1_GWF-(1,5,48)      0.38322996                     1_GWF-(1,3,44)
         44          5          4     -0.22736331                     1_GWF-(1,3,46)      0.20750651                     1_GWF-(1,3,36)
         45          5          5 -5.62661448E-02                     1_GWF-(1,3,37)      0.24741708                     1_GWF-(5,5,60)
         46          5          6 -2.11031872E-02                     1_GWF-(1,3,41)  9.39382999E-02                     1_GWF-(5,7,47)
         47          6          1 -3.12144788E-02                     1_GWF-(4,8,53)      0.17719339                    1_GWF-(5,10,52)
         48          6          2 -3.09304312E-02                    1_GWF-(4,10,52)      0.11280212                    1_GWF-(5,14,52)
         49          6          3     -0.38894390                    1_GWF-(4,11,56)     -0.32439475                    1_GWF-(5,12,56)
         50          6          4     -0.11843692                     1_GWF-(4,4,56)      0.17201126                    1_GWF-(4,18,56)
         51          6          5      0.13056677                    1_GWF-(5,11,58) -6.17201499E-02                    1_GWF-(4,18,57)
         52          6          6  1.49619900E-02                     1_GWF-(1,4,33)  4.46115625E-02                    1_GWF-(4,18,58)
         53          7          1  6.28182177E-02                    1_GWF-(5,17,57)     -0.25611306                     1_GWF-(4,6,37)
         54          7          2 -1.74152889E-02                     1_GWF-(5,4,32)  8.07027054E-02                     1_GWF-(5,5,32)
 --------------------------------------------------------------------------------------------------------------------------------------


 UBDSV1 SAVING     FLOW-JA-FACE ON UNIT   1018 AT TIME STEP      1, STRESS PERIOD      1
 UBDSV06 SAVING       DATA-SPDIS IN MODEL LOCAL1           PACKAGE NPF             CONNECTED TO MODEL LOCAL1           PACKAGE NPF              ON UNIT   1018 AT TIME STEP      1, STRESS PERIOD      1
 UBDSV06 SAVING              WEL IN MODEL LOCAL1           PACKAGE LOCAL1          CONNECTED TO MODEL LOCAL1           PACKAGE MBR              ON UNIT   1018 AT TIME STEP      1, STRESS PERIOD      1
 UBDSV06 SAVING              WEL IN MODEL LOCAL1           PACKAGE LOCAL1          CONNECTED TO MODEL LOCAL1           PACKAGE INFLUX           ON UNIT   1018 AT TIME STEP      1, STRESS PERIOD      1
 UBDSV06 SAVING              WEL IN MODEL LOCAL1           PACKAGE LOCAL1          CONNECTED TO MODEL LOCAL1           PACKAGE OUTFLUX          ON UNIT   1018 AT TIME STEP      1, STRESS PERIOD      1
 UBDSV06 SAVING              DRN IN MODEL LOCAL1           PACKAGE LOCAL1          CONNECTED TO MODEL LOCAL1           PACKAGE DRN_R            ON UNIT   1018 AT TIME STEP      1, STRESS PERIOD      1
 UBDSV06 SAVING             RCHA IN MODEL LOCAL1           PACKAGE LOCAL1          CONNECTED TO MODEL LOCAL1           PACKAGE RCH              ON UNIT   1018 AT TIME STEP      1, STRESS PERIOD      1
 UBDSV06 SAVING              CHD IN MODEL LOCAL1           PACKAGE LOCAL1          CONNECTED TO MODEL LOCAL1           PACKAGE CHD_PW           ON UNIT   1018 AT TIME STEP      1, STRESS PERIOD      1
 UBDSV06 SAVING              CHD IN MODEL LOCAL1           PACKAGE LOCAL1          CONNECTED TO MODEL LOCAL1           PACKAGE CHD_CONF         ON UNIT   1018 AT TIME STEP      1, STRESS PERIOD      1

 HEAD WILL BE SAVED ON UNIT 1019 AT END OF TIME STEP    1, STRESS PERIOD    1


  VOLUME BUDGET FOR ENTIRE MODEL AT END OF TIME STEP    1, STRESS PERIOD   1
  ---------------------------------------------------------------------------------------------------

     CUMULATIVE VOLUME      L**3       RATES FOR THIS TIME STEP      L**3/T          PACKAGE NAME    
     ------------------                 ------------------------                     ----------------

           IN:                                      IN:
           ---                                      ---
                 WEL =         814.0000                   WEL =         814.0000     MBR                              
                 WEL =         330.0000                   WEL =         330.0000     INFLUX                           
                 WEL =           2.8200                   WEL =           2.8200     OUTFLUX                          
                 DRN =           0.0000                   DRN =           0.0000     DRN_R                            
                RCHA =          96.7500                  RCHA =          96.7500     RCH                              
                 CHD =         223.6289                   CHD =         223.6289     CHD_PW                           
                 CHD =         295.3801                   CHD =         295.3801     CHD_CONF                         

            TOTAL IN =        1762.5790              TOTAL IN =        1762.5790

          OUT:                                     OUT:
          ----                                     ----
                 WEL =           0.0000                   WEL =           0.0000     MBR                              
                 WEL =           0.0000                   WEL =           0.0000     INFLUX                           
                 WEL =           0.0000                   WEL =           0.0000     OUTFLUX                          
                 DRN =        1481.4467                   DRN =        1481.4467     DRN_R                            
                RCHA =           0.0000                  RCHA =           0.0000     RCH                              
                 CHD =         307.9160                   CHD =         307.9160     CHD_PW                           
                 CHD =           0.0000                   CHD =           0.0000     CHD_CONF                         

           TOTAL OUT =        1789.3627             TOTAL OUT =        1789.3627

            IN - OUT =         -26.7837              IN - OUT =         -26.7837

 PERCENT DISCREPANCY =          -1.51     PERCENT DISCREPANCY =          -1.51




         TIME SUMMARY AT END OF TIME STEP    1 IN STRESS PERIOD    1
                    SECONDS     MINUTES      HOURS       DAYS        YEARS
                    -----------------------------------------------------------
   TIME STEP LENGTH  86400.      1440.0      24.000      1.0000     2.73785E-03
 STRESS PERIOD TIME  86400.      1440.0      24.000      1.0000     2.73785E-03
         TOTAL TIME  86400.      1440.0      24.000      1.0000     2.73785E-03


end timestep

