                                   MODFLOW 6
                U.S. GEOLOGICAL SURVEY MODULAR HYDROLOGIC MODEL
                   VERSION 6.3.0 release candidate 02/06/2022
                               ***DEVELOP MODE***

   MODFLOW 6 compiled Feb 06 2022 02:35:51 with Intel(R) Fortran Intel(R) 64
   Compiler Classic for applications running on Intel(R) 64, Version 2021.5.0
                             Build 20211109_000000

This software is preliminary or provisional and is subject to 
revision. It is being provided to meet the need for timely best 
science. The software has not received final approval by the U.S. 
Geological Survey (USGS). No warranty, expressed or implied, is made 
by the USGS or the U.S. Government as to the functionality of the 
software and related material nor shall the fact of release 
constitute any such warranty. The software is provided on the 
condition that neither the USGS nor the U.S. Government shall be held 
liable for any damages resulting from the authorized or unauthorized 
use of the software.


As a work of the United States Government, this USGS product is 
in the public domain within the United States. You can copy, 
modify, distribute, and perform the work, even for commercial 
purposes, all without asking permission. Additionally, USGS 
waives copyright and related rights in the work worldwide 
through CC0 1.0 Universal Public Domain Dedication 
(https://creativecommons.org/publicdomain/zero/1.0/).

The following GNU Lesser General Public License (LGPL) libraries
are used in this USGS product:

    SPARSKIT version 2.0
      ilut, luson, and qsplit 
      (https://www-users.cse.umn.edu/~saad/software/SPARSKIT/)

    RCM - Reverse Cuthill McKee Ordering
      (https://people.math.sc.edu/Burkardt/f_src/rcm/rcm.html)

    BLAS - Basic Linear Algebra Subprograms Level 1
      (https://people.math.sc.edu/Burkardt/f_src/blas1_d/blas1_d.html)

    SPARSEKIT - Sparse Matrix Utility Package
      amux, dperm, dvperm, rperm, and cperm
      (https://people.sc.fsu.edu/~jburkardt/f77_src/sparsekit/sparsekit.html)

The following BSD-3 License libraries are used in this USGS product:

    Modern Fortran DAG Library
      Copyright (c) 2018, Jacob Williams
      All rights reserved.
      (https://github.com/jacobwilliams/daglib)

MODFLOW 6 compiler options: /O2 /heap-arrays:0 /fpe:0 /traceback /nologo /fpp
/c /module:.\mod_temp\ /object:.\obj_temp\

System command used to initiate simulation:
mf6.exe

MODFLOW was compiled using uniform precision.

Real Variables
  KIND: 8
  TINY (smallest non-zero value):    2.225074-308
  HUGE (largest value):    1.797693+308
  PRECISION: 15
  BIT SIZE: 64

Integer Variables
  KIND: 4
  HUGE (largest value): 2147483647
  BIT SIZE: 32

Long Integer Variables
  KIND: 8
  HUGE (largest value): 9223372036854775807
  BIT SIZE: 64

Logical Variables
  KIND: 4
  BIT SIZE: 32
 

 OPENED mfsim.nam
 FILE TYPE:NAM   UNIT 1001   STATUS:OLD                 
 FORMAT:FORMATTED              ACCESS:SEQUENTIAL          
 ACTION:READ                

 # File generated by Flopy version 3.9.2 on 06/25/2025 at 12:53:07.

 READING SIMULATION OPTIONS
 END OF SIMULATION OPTIONS

 READING SIMULATION TIMING

 OPENED local1.tdis
 FILE TYPE:TDIS   UNIT 1002   STATUS:OLD                 
 FORMAT:FORMATTED              ACCESS:SEQUENTIAL          
 ACTION:READ                


 TDIS -- TEMPORAL DISCRETIZATION PACKAGE,
 VERSION 1 : 11/13/2014 - INPUT READ FROM UNIT 1002
 # File generated by Flopy version 3.9.2 on 06/25/2025 at 12:53:07.
 PROCESSING TDIS OPTIONS
    SIMULATION TIME UNIT IS DAYS
 END OF TDIS OPTIONS
 PROCESSING TDIS DIMENSIONS
    1 STRESS PERIOD(S) IN SIMULATION
 END OF TDIS DIMENSIONS
 PROCESSING TDIS PERIODDATA


 STRESS PERIOD     LENGTH       TIME STEPS     MULTIPLIER FOR DELT
 ----------------------------------------------------------------------------
        1         1.000000          1                    1.000
 END OF TDIS PERIODDATA
 END OF SIMULATION TIMING

 READING SIMULATION MODELS
    GWF6 model LOCAL1 will be created as model 1
 END OF SIMULATION MODELS

 READING SIMULATION EXCHANGES
 END OF SIMULATION EXCHANGES

 READING SOLUTIONGROUP

 Creating solution: SLN_1           

 OPENED local1.ims
 FILE TYPE:IMS   UNIT 1016   STATUS:OLD                 
 FORMAT:FORMATTED              ACCESS:SEQUENTIAL          
 ACTION:READ                

 END OF SIMULATION SOLUTIONGROUP

PROCESSING MODEL CONNECTIONS

 IMS -- ITERATIVE MODEL SOLUTION PACKAGE, VERSION 6, 4/28/2017
         INPUT READ FROM UNIT 1016
 # File generated by Flopy version 3.9.2 on 06/25/2025 at 12:53:07.

 PROCESSING IMS OPTIONS
 COMPLEX OPTION:
 DEFAULT SOLVER INPUT VALUES REFLECT STRONGLY NONLINEAR MODEL
 END OF IMS OPTIONS
 **UNDER-RELAXATION WILL BE USED***
 
 ***IMS LINEAR SOLVER WILL BE USED***

 IMSLINEAR -- UNSTRUCTURED LINEAR SOLUTION PACKAGE, VERSION 8, 04/28/2017
 
 An asymmetric matrix will be solved

 OUTER ITERATION CONVERGENCE CRITERION    (DVCLOSE) =    0.100000E+00
 MAXIMUM NUMBER OF OUTER ITERATIONS        (MXITER) = 100
 SOLVER PRINTOUT INDEX                     (IPRIMS) = 2
 NONLINEAR ITERATION METHOD            (NONLINMETH) = 3
 LINEAR SOLUTION METHOD                   (LINMETH) = 1
 UNDER-RELAXATION WEIGHT REDUCTION FACTOR   (THETA) =    0.800000E+00
 UNDER-RELAXATION WEIGHT INCREASE INCREMENT (KAPPA) =    0.100000E-03
 UNDER-RELAXATION PREVIOUS HISTORY FACTOR   (GAMMA) =    0.000000E+00
 UNDER-RELAXATION MOMENTUM TERM         (AMOMENTUM) =    0.000000E+00
 MAXIMUM NUMBER OF BACKTRACKS            (NUMTRACK) = 20
 BACKTRACKING TOLERANCE FACTOR               (BTOL) =    0.105000E+01
 BACKTRACKING REDUCTION FACTOR             (BREDUC) =    0.100000E+00
 BACKTRACKING RESIDUAL LIMIT              (RES_LIM) =    0.200000E-02

       SOLUTION BY THE BICONJUGATE-GRADIENT STABILIZED METHOD
 ------------------------------------------------------------------
 MAXIMUM OF 100 CALLS OF SOLUTION ROUTINE
 MAXIMUM OF 500 INTERNAL ITERATIONS PER CALL TO SOLUTION ROUTINE
 LINEAR ACCELERATION METHOD            = BCGS      
 MATRIX PRECONDITIONING TYPE           = INCOMPLETE LUT      
 MATRIX SCALING APPROACH               = NO SCALING          
 MATRIX REORDERING APPROACH            = ORIGINAL ORDERING        
 NUMBER OF ORTHOGONALIZATIONS          = 2
 HEAD CHANGE CRITERION FOR CLOSURE     =    0.10000E+00
 RESIDUAL CHANGE CRITERION FOR CLOSURE =    0.10000E+00
 RESIDUAL CONVERGENCE OPTION           = 0
 RESIDUAL CONVERGENCE NORM             = INFINITY NORM   
 RELAXATION FACTOR                     =    0.00000E+00
 NUMBER OF LEVELS                      =              5
 DROP TOLERANCE                        =    0.10000E-03


 
    Solving:  Stress period:     1    Time step:     1
 
1
                            STRESS PERIOD NO. 1, LENGTH =   1.000000    
                            -----------------------------------------------
                            NUMBER OF TIME STEPS = 1
                            MULTIPLIER FOR DELT =     1.000
                            INITIAL TIME STEP SIZE =   1.000000    

 SLN_1 OUTER ITERATION SUMMARY
 ----------------------------------------------------------------------------------------------------------------------------------------------------------------
                                OUTER      INNER  BACKTRACK  BACKTRACK        INCOMING        OUTGOING                    STEP   MAXIMUM CHANGE MODEL-(CELLID) OR
 OUTER ITERATION STEP       ITERATION  ITERATION       FLAG ITERATIONS        RESIDUAL        RESIDUAL  MAXIMUM CHANGE SUCCESS             MODEL-PACKAGE-(NUMBER)
 ----------------------------------------------------------------------------------------------------------------------------------------------------------------
 Backtracking                       1                     0          0       54108.208       54108.208                       *                                   
 Model                              1         16                                                            -6.0010598                            1_GWF-(1,43,39)
 Backtracking                       2                     0          0       366.97439       366.97439                       *                                   
 Model                              2          6                                                            -3.0432054                            1_GWF-(1,14,44)
 Backtracking                       3                     0          0       107.21845       107.21845                       *                                   
 Model                              3          9                                                            -1.7222636                             1_GWF-(1,8,51)
 Backtracking                       4                     1          1       116.54089       102.53880                                                           
 Model                              4          9                                                            -1.5536867                             1_GWF-(1,8,51)
 Backtracking                       5                     1          1       112.80115       99.039202                                                           
 Model                              5          6                                                            -1.3402956                             1_GWF-(1,8,51)
 Backtracking                       6                     0          0       50.657133       50.657133                       *                                   
 Model                              6          6                                                           -0.36963987                             1_GWF-(5,8,53)
 Backtracking                       7                     4          0       108.83620       108.83620                       *                                   
 Model                              7          2                                                       -6.67088858E-02       *                     1_GWF-(4,2,35)
 ----------------------------------------------------------------------------------------------------------------------------------------------------------------


 7 CALLS TO NUMERICAL SOLUTION IN TIME STEP 1 STRESS PERIOD 1
 54 TOTAL ITERATIONS

 SLN_1 INNER ITERATION SUMMARY
 --------------------------------------------------------------------------------------------------------------------------------------
      TOTAL      OUTER      INNER                                                            MAXIMUM                                   
  ITERATION  ITERATION  ITERATION  MAXIMUM CHANGE      MAXIMUM CHANGE MODEL-(CELLID)        RESIDUAL    MAXIMUM RESIDUAL MODEL-(CELLID)
 --------------------------------------------------------------------------------------------------------------------------------------
          1          1          1      -5.7565646                    1_GWF-(1,36,17)       21.361809                    1_GWF-(1,26,38)
          2          1          2      -1.1945162                    1_GWF-(1,34,33)       4.2774806                    1_GWF-(1,36,37)
          3          1          3     -0.58319390                    1_GWF-(1,24,27)       2.1827707                    1_GWF-(1,24,24)
          4          1          4     -0.53959241                    1_GWF-(1,23,24)       1.3179656                    1_GWF-(1,23,19)
          5          1          5     -0.39261652                    1_GWF-(1,23,21)       1.0891757                     1_GWF-(1,3,32)
          6          1          6     -0.41670283                     1_GWF-(1,4,31)      0.81884820                     1_GWF-(1,3,34)
          7          1          7     -0.38443455                     1_GWF-(1,3,32)      0.41185167                     1_GWF-(1,3,34)
          8          1          8     -0.26761557                     1_GWF-(1,3,32)      0.29698999                     1_GWF-(5,3,28)
          9          1          9     -0.17967432                     1_GWF-(1,3,32)      0.30696630                    1_GWF-(5,18,33)
         10          1         10     -0.11212755                     1_GWF-(4,3,29)      0.20525953                     1_GWF-(5,3,27)
         11          1         11     -0.31996889                     1_GWF-(5,3,28)      0.22131581                    1_GWF-(4,18,17)
         12          1         12     -0.14922495                     1_GWF-(5,3,28)     -0.10406768                     1_GWF-(1,3,34)
         13          1         13  1.88213608E-02                     1_GWF-(1,3,32)      0.15231077                    1_GWF-(4,18,18)
         14          1         14     -0.37046209                     1_GWF-(5,4,28)      0.13440880                     1_GWF-(5,39,3)
         15          1         15      0.17510732                     1_GWF-(4,3,28)      0.16914034                    1_GWF-(4,17,31)
         16          1         16 -2.81343161E-02                     1_GWF-(5,4,27)  4.99697863E-02                    1_GWF-(5,32,13)
         17          2          1      -2.7841844                    1_GWF-(1,14,44)       6.1795850                    1_GWF-(1,14,43)
         18          2          2     -0.50410055                     1_GWF-(1,4,57)       1.8481706                     1_GWF-(1,4,58)
         19          2          3     -0.38213168                     1_GWF-(1,4,57)      0.55721203                     1_GWF-(1,4,58)
         20          2          4     -0.14849532                     1_GWF-(1,4,57)      0.20561719                    1_GWF-(1,16,18)
         21          2          5 -4.47503194E-02                     1_GWF-(4,4,59)      0.14194403                    1_GWF-(1,16,18)
         22          2          6 -6.79103781E-02                     1_GWF-(4,4,59)  8.29227137E-02                     1_GWF-(5,6,56)
         23          3          1      -1.0496263                     1_GWF-(1,8,51)       2.8832274                     1_GWF-(1,8,51)
         24          3          2     -0.33633328                     1_GWF-(1,8,48)      0.99292734                     1_GWF-(1,5,48)
         25          3          3     -0.31374556                     1_GWF-(1,5,48)      0.47039141                     1_GWF-(1,3,44)
         26          3          4      0.44544804                     1_GWF-(1,3,46)       1.1703726                     1_GWF-(1,5,46)
         27          3          5     -0.72678360                     1_GWF-(1,3,45)      0.13671094                     1_GWF-(1,4,51)
         28          3          6 -4.86885451E-02                     1_GWF-(1,4,47)      0.12375776                     1_GWF-(5,5,59)
         29          3          7 -4.87369140E-02                     1_GWF-(4,4,49)      0.11942858                     1_GWF-(5,5,59)
         30          3          8 -5.98221012E-02                     1_GWF-(5,4,49)      0.13969155                     1_GWF-(5,5,59)
         31          3          9 -7.92512984E-02                     1_GWF-(5,5,49)  6.99496504E-02                     1_GWF-(5,5,59)
         32          4          1     -0.94582911                     1_GWF-(1,8,51)       2.3920126                     1_GWF-(1,8,51)
         33          4          2     -0.30020853                     1_GWF-(1,8,48)      0.89543059                     1_GWF-(1,5,48)
         34          4          3     -0.28019072                     1_GWF-(1,5,48)      0.42497961                     1_GWF-(1,3,44)
         35          4          4     -0.54751179                     1_GWF-(1,3,46)     -0.59823786                     1_GWF-(1,5,48)
         36          4          5      0.31920901                     1_GWF-(1,4,48)      0.12634672                     1_GWF-(1,5,48)
         37          4          6 -4.33997285E-02                     1_GWF-(1,4,47)      0.11979146                     1_GWF-(5,5,59)
         38          4          7 -4.37742537E-02                     1_GWF-(4,4,49)      0.12050664                     1_GWF-(5,5,59)
         39          4          8 -6.15711789E-02                     1_GWF-(5,4,49)      0.12246829                     1_GWF-(5,5,59)
         40          4          9 -7.51964699E-02                     1_GWF-(5,5,49)  4.85255062E-02                    1_GWF-(5,19,59)
         41          5          1     -0.85204208                     1_GWF-(1,8,51)       1.9617197                     1_GWF-(1,8,51)
         42          5          2     -0.26799014                     1_GWF-(1,8,48)      0.80815107                     1_GWF-(1,5,48)
         43          5          3     -0.25061324                     1_GWF-(1,5,48)      0.38322996                     1_GWF-(1,3,44)
         44          5          4     -0.22736331                     1_GWF-(1,3,46)      0.20750651                     1_GWF-(1,3,36)
         45          5          5 -5.62661448E-02                     1_GWF-(1,3,37)      0.24741708                     1_GWF-(5,5,60)
         46          5          6 -2.11031872E-02                     1_GWF-(1,3,41)  9.39382999E-02                     1_GWF-(5,7,47)
         47          6          1 -3.12144788E-02                     1_GWF-(4,8,53)      0.17719339                    1_GWF-(5,10,52)
         48          6          2 -3.09304312E-02                    1_GWF-(4,10,52)      0.11280212                    1_GWF-(5,14,52)
         49          6          3     -0.38894390                    1_GWF-(4,11,56)     -0.32439475                    1_GWF-(5,12,56)
         50          6          4     -0.11843692                     1_GWF-(4,4,56)      0.17201126                    1_GWF-(4,18,56)
         51          6          5      0.13056677                    1_GWF-(5,11,58) -6.17201499E-02                    1_GWF-(4,18,57)
         52          6          6  1.49619900E-02                     1_GWF-(1,4,33)  4.46115625E-02                    1_GWF-(4,18,58)
         53          7          1  6.28182177E-02                    1_GWF-(5,17,57)     -0.25611306                     1_GWF-(4,6,37)
         54          7          2 -1.74152889E-02                     1_GWF-(5,4,32)  8.07027054E-02                     1_GWF-(5,5,32)
 --------------------------------------------------------------------------------------------------------------------------------------




 Solution SLN_1 summary
 ----------------------------------------------------------------------
 Total formulate time:  .3125000000000000E-01 seconds
 Total solution time:   .7812500000000000E-01 seconds


 MEMORY MANAGER TOTAL STORAGE BY DATA TYPE, IN MEGABYTES
 -------------------------------
                    ALLOCATED   
 DATA TYPE           MEMORY     
 -------------------------------
 Character        4.03300000E-03
 Logical          4.40000000E-05
 Integer          4.6978480     
 Real             7.7965120     
 -------------------------------
 Total            12.498437     
 -------------------------------


 
 Run end date and time (yyyy/mm/dd hh:mm:ss): 2025/06/25 17:21:28
 Elapsed run time:  0.510 Seconds
 Normal termination of simulation.
