                                   MODFLOW 6
                U.S. GEOLOGICAL SURVEY MODULAR HYDROLOGIC MODEL
                   VERSION 6.3.0 release candidate 02/06/2022
                               ***DEVELOP MODE***

   MODFLOW 6 compiled Feb 06 2022 02:35:51 with Intel(R) Fortran Intel(R) 64
   Compiler Classic for applications running on Intel(R) 64, Version 2021.5.0
                             Build 20211109_000000

This software is preliminary or provisional and is subject to 
revision. It is being provided to meet the need for timely best 
science. The software has not received final approval by the U.S. 
Geological Survey (USGS). No warranty, expressed or implied, is made 
by the USGS or the U.S. Government as to the functionality of the 
software and related material nor shall the fact of release 
constitute any such warranty. The software is provided on the 
condition that neither the USGS nor the U.S. Government shall be held 
liable for any damages resulting from the authorized or unauthorized 
use of the software.


As a work of the United States Government, this USGS product is 
in the public domain within the United States. You can copy, 
modify, distribute, and perform the work, even for commercial 
purposes, all without asking permission. Additionally, USGS 
waives copyright and related rights in the work worldwide 
through CC0 1.0 Universal Public Domain Dedication 
(https://creativecommons.org/publicdomain/zero/1.0/).

The following GNU Lesser General Public License (LGPL) libraries
are used in this USGS product:

    SPARSKIT version 2.0
      ilut, luson, and qsplit 
      (https://www-users.cse.umn.edu/~saad/software/SPARSKIT/)

    RCM - Reverse Cuthill McKee Ordering
      (https://people.math.sc.edu/Burkardt/f_src/rcm/rcm.html)

    BLAS - Basic Linear Algebra Subprograms Level 1
      (https://people.math.sc.edu/Burkardt/f_src/blas1_d/blas1_d.html)

    SPARSEKIT - Sparse Matrix Utility Package
      amux, dperm, dvperm, rperm, and cperm
      (https://people.sc.fsu.edu/~jburkardt/f77_src/sparsekit/sparsekit.html)

The following BSD-3 License libraries are used in this USGS product:

    Modern Fortran DAG Library
      Copyright (c) 2018, Jacob Williams
      All rights reserved.
      (https://github.com/jacobwilliams/daglib)

MODFLOW 6 compiler options: /O2 /heap-arrays:0 /fpe:0 /traceback /nologo /fpp
/c /module:.\mod_temp\ /object:.\obj_temp\

System command used to initiate simulation:
mf6.exe

MODFLOW was compiled using uniform precision.

Real Variables
  KIND: 8
  TINY (smallest non-zero value):    2.225074-308
  HUGE (largest value):    1.797693+308
  PRECISION: 15
  BIT SIZE: 64

Integer Variables
  KIND: 4
  HUGE (largest value): 2147483647
  BIT SIZE: 32

Long Integer Variables
  KIND: 8
  HUGE (largest value): 9223372036854775807
  BIT SIZE: 64

Logical Variables
  KIND: 4
  BIT SIZE: 32
 

 OPENED mfsim.nam
 FILE TYPE:NAM   UNIT 1001   STATUS:OLD                 
 FORMAT:FORMATTED              ACCESS:SEQUENTIAL          
 ACTION:READ                

 # File generated by Flopy version 3.9.2 on 06/25/2025 at 12:53:07.

 READING SIMULATION OPTIONS
 END OF SIMULATION OPTIONS

 READING SIMULATION TIMING

 OPENED local1.tdis
 FILE TYPE:TDIS   UNIT 1002   STATUS:OLD                 
 FORMAT:FORMATTED              ACCESS:SEQUENTIAL          
 ACTION:READ                


 TDIS -- TEMPORAL DISCRETIZATION PACKAGE,
 VERSION 1 : 11/13/2014 - INPUT READ FROM UNIT 1002
 # File generated by Flopy version 3.9.2 on 06/25/2025 at 12:53:07.
 PROCESSING TDIS OPTIONS
    SIMULATION TIME UNIT IS DAYS
 END OF TDIS OPTIONS
 PROCESSING TDIS DIMENSIONS
    1 STRESS PERIOD(S) IN SIMULATION
 END OF TDIS DIMENSIONS
 PROCESSING TDIS PERIODDATA


 STRESS PERIOD     LENGTH       TIME STEPS     MULTIPLIER FOR DELT
 ----------------------------------------------------------------------------
        1         1.000000          1                    1.000
 END OF TDIS PERIODDATA
 END OF SIMULATION TIMING

 READING SIMULATION MODELS
    GWF6 model LOCAL1 will be created as model 1
 END OF SIMULATION MODELS

 READING SIMULATION EXCHANGES
 END OF SIMULATION EXCHANGES

 READING SOLUTIONGROUP

 Creating solution: SLN_1           

 OPENED local1.ims
 FILE TYPE:IMS   UNIT 1016   STATUS:OLD                 
 FORMAT:FORMATTED              ACCESS:SEQUENTIAL          
 ACTION:READ                

 END OF SIMULATION SOLUTIONGROUP

PROCESSING MODEL CONNECTIONS

 IMS -- ITERATIVE MODEL SOLUTION PACKAGE, VERSION 6, 4/28/2017
         INPUT READ FROM UNIT 1016
 # File generated by Flopy version 3.9.2 on 06/25/2025 at 12:53:07.

 PROCESSING IMS OPTIONS
 COMPLEX OPTION:
 DEFAULT SOLVER INPUT VALUES REFLECT STRONGLY NONLINEAR MODEL
 END OF IMS OPTIONS
 **UNDER-RELAXATION WILL BE USED***
 
 ***IMS LINEAR SOLVER WILL BE USED***

 IMSLINEAR -- UNSTRUCTURED LINEAR SOLUTION PACKAGE, VERSION 8, 04/28/2017
 
 An asymmetric matrix will be solved

 OUTER ITERATION CONVERGENCE CRITERION    (DVCLOSE) =    0.100000E+00
 MAXIMUM NUMBER OF OUTER ITERATIONS        (MXITER) = 100
 SOLVER PRINTOUT INDEX                     (IPRIMS) = 2
 NONLINEAR ITERATION METHOD            (NONLINMETH) = 3
 LINEAR SOLUTION METHOD                   (LINMETH) = 1
 UNDER-RELAXATION WEIGHT REDUCTION FACTOR   (THETA) =    0.800000E+00
 UNDER-RELAXATION WEIGHT INCREASE INCREMENT (KAPPA) =    0.100000E-03
 UNDER-RELAXATION PREVIOUS HISTORY FACTOR   (GAMMA) =    0.000000E+00
 UNDER-RELAXATION MOMENTUM TERM         (AMOMENTUM) =    0.000000E+00
 MAXIMUM NUMBER OF BACKTRACKS            (NUMTRACK) = 20
 BACKTRACKING TOLERANCE FACTOR               (BTOL) =    0.105000E+01
 BACKTRACKING REDUCTION FACTOR             (BREDUC) =    0.100000E+00
 BACKTRACKING RESIDUAL LIMIT              (RES_LIM) =    0.200000E-02

       SOLUTION BY THE BICONJUGATE-GRADIENT STABILIZED METHOD
 ------------------------------------------------------------------
 MAXIMUM OF 100 CALLS OF SOLUTION ROUTINE
 MAXIMUM OF 500 INTERNAL ITERATIONS PER CALL TO SOLUTION ROUTINE
 LINEAR ACCELERATION METHOD            = BCGS      
 MATRIX PRECONDITIONING TYPE           = INCOMPLETE LUT      
 MATRIX SCALING APPROACH               = NO SCALING          
 MATRIX REORDERING APPROACH            = ORIGINAL ORDERING        
 NUMBER OF ORTHOGONALIZATIONS          = 2
 HEAD CHANGE CRITERION FOR CLOSURE     =    0.10000E+00
 RESIDUAL CHANGE CRITERION FOR CLOSURE =    0.10000E+00
 RESIDUAL CONVERGENCE OPTION           = 0
 RESIDUAL CONVERGENCE NORM             = INFINITY NORM   
 RELAXATION FACTOR                     =    0.00000E+00
 NUMBER OF LEVELS                      =              5
 DROP TOLERANCE                        =    0.10000E-03


 
    Solving:  Stress period:     1    Time step:     1
 
1
                            STRESS PERIOD NO. 1, LENGTH =   1.000000    
                            -----------------------------------------------
                            NUMBER OF TIME STEPS = 1
                            MULTIPLIER FOR DELT =     1.000
                            INITIAL TIME STEP SIZE =   1.000000    

 SLN_1 OUTER ITERATION SUMMARY
 ----------------------------------------------------------------------------------------------------------------------------------------------------------------
                                OUTER      INNER  BACKTRACK  BACKTRACK        INCOMING        OUTGOING                    STEP   MAXIMUM CHANGE MODEL-(CELLID) OR
 OUTER ITERATION STEP       ITERATION  ITERATION       FLAG ITERATIONS        RESIDUAL        RESIDUAL  MAXIMUM CHANGE SUCCESS             MODEL-PACKAGE-(NUMBER)
 ----------------------------------------------------------------------------------------------------------------------------------------------------------------
 Backtracking                       1                     0          0       54108.271       54108.271                       *                                   
 Model                              1         16                                                            -6.0011908                            1_GWF-(1,43,39)
 Backtracking                       2                     0          0       373.86251       373.86251                       *                                   
 Model                              2          9                                                            -3.1063859                            1_GWF-(1,14,44)
 Backtracking                       3                     0          0       124.08247       124.08247                       *                                   
 Model                              3          7                                                            -2.0735855                             1_GWF-(1,8,51)
 Backtracking                       4                     0          0       20.843987       20.843987                       *                                   
 Model                              4          5                                                           -0.33014086                            1_GWF-(5,12,51)
 Backtracking                       5                     4          0       38.516820       38.516820                       *                                   
 Model                              5          2                                                       -5.89315678E-02       *                     1_GWF-(6,5,33)
 ----------------------------------------------------------------------------------------------------------------------------------------------------------------


 5 CALLS TO NUMERICAL SOLUTION IN TIME STEP 1 STRESS PERIOD 1
 39 TOTAL ITERATIONS

 SLN_1 INNER ITERATION SUMMARY
 --------------------------------------------------------------------------------------------------------------------------------------
      TOTAL      OUTER      INNER                                                            MAXIMUM                                   
  ITERATION  ITERATION  ITERATION  MAXIMUM CHANGE      MAXIMUM CHANGE MODEL-(CELLID)        RESIDUAL    MAXIMUM RESIDUAL MODEL-(CELLID)
 --------------------------------------------------------------------------------------------------------------------------------------
          1          1          1      -5.7565663                    1_GWF-(1,36,17)       21.361823                    1_GWF-(1,26,38)
          2          1          2      -1.1952427                    1_GWF-(1,34,33)       4.2756024                    1_GWF-(1,36,37)
          3          1          3     -0.58435461                    1_GWF-(1,24,27)       2.1792097                    1_GWF-(1,24,24)
          4          1          4     -0.54277282                    1_GWF-(1,23,24)       1.3485717                     1_GWF-(1,9,35)
          5          1          5     -0.39668198                    1_GWF-(1,23,21)       1.1632322                     1_GWF-(1,3,33)
          6          1          6     -0.46061775                     1_GWF-(1,4,31)      0.86043175                     1_GWF-(1,3,34)
          7          1          7     -0.43086918                     1_GWF-(1,3,32)      0.44591759                    1_GWF-(5,17,31)
          8          1          8     -0.31191526                     1_GWF-(1,3,32)      0.33955637                     1_GWF-(5,3,28)
          9          1          9     -0.20938905                     1_GWF-(3,3,32)      0.37612779                    1_GWF-(5,18,33)
         10          1         10     -0.14442093                     1_GWF-(4,3,31)      0.23066497                     1_GWF-(5,3,27)
         11          1         11     -0.42972366                     1_GWF-(5,3,30)      0.30595750                    1_GWF-(4,18,17)
         12          1         12      0.31785786                     1_GWF-(5,3,30)      0.29236898                    1_GWF-(4,18,18)
         13          1         13     -0.76855001                     1_GWF-(5,4,30)      0.15186042                     1_GWF-(5,39,3)
         14          1         14     -0.22964087                     1_GWF-(5,4,32)      0.16715260                    1_GWF-(4,20,17)
         15          1         15      0.27318268                     1_GWF-(5,3,30)      0.17389503                    1_GWF-(4,17,31)
         16          1         16 -3.35263763E-02                    1_GWF-(4,18,58)  6.63790086E-02                    1_GWF-(5,40,40)
         17          2          1      -2.8283627                    1_GWF-(1,14,44)       6.2762368                    1_GWF-(1,14,43)
         18          2          2     -0.72144006                     1_GWF-(1,4,58)       2.3816229                     1_GWF-(1,4,58)
         19          2          3     -0.53704032                     1_GWF-(1,4,57)     -0.64086893                    1_GWF-(1,15,18)
         20          2          4     -0.16561434                     1_GWF-(1,4,56)     -0.27173444                    1_GWF-(1,15,18)
         21          2          5 -5.18294199E-02                     1_GWF-(4,4,59)      0.15505726                     1_GWF-(5,5,58)
         22          2          6     -0.10612062                     1_GWF-(4,4,59)  7.70871473E-02                    1_GWF-(5,11,57)
         23          2          7 -7.39116078E-02                     1_GWF-(5,4,59)     -0.15407813                    1_GWF-(1,17,18)
         24          2          8 -6.07671686E-02                     1_GWF-(5,5,58)      0.12336227                    1_GWF-(1,17,18)
         25          2          9 -1.94418730E-03                    1_GWF-(4,19,59)  6.92838826E-02                    1_GWF-(5,19,59)
         26          3          1      -1.2756607                     1_GWF-(1,8,51)       3.7621184                     1_GWF-(1,8,51)
         27          3          2     -0.46663173                     1_GWF-(1,8,47)       1.2412596                     1_GWF-(1,5,48)
         28          3          3     -0.40618824                     1_GWF-(1,4,48)      0.57792681                     1_GWF-(1,3,44)
         29          3          4     -0.68700655                     1_GWF-(1,3,46)     -0.72324508                     1_GWF-(1,5,47)
         30          3          5      0.38968992                     1_GWF-(1,4,48)      0.16747118                    1_GWF-(1,14,43)
         31          3          6 -5.33814359E-02                     1_GWF-(1,4,47)      0.12212303                    1_GWF-(5,11,53)
         32          3          7 -4.17469044E-02                     1_GWF-(3,2,45)  9.90974943E-02                    1_GWF-(5,11,53)
         33          4          1 -4.61940889E-02                     1_GWF-(6,8,61)      0.19215209                     1_GWF-(5,9,54)
         34          4          2 -3.25267288E-02                     1_GWF-(4,9,57)      0.16186100                     1_GWF-(4,6,36)
         35          4          3     -0.12095244                     1_GWF-(4,3,30)      0.20873711                     1_GWF-(5,7,38)
         36          4          4     -0.12830869                     1_GWF-(5,7,49)      0.12561992                     1_GWF-(5,7,38)
         37          4          5 -4.22125463E-02                    1_GWF-(4,19,59) -6.32659764E-02                     1_GWF-(5,3,29)
         38          5          1  6.72532817E-02                     1_GWF-(6,2,33)     -0.30468873                     1_GWF-(5,7,35)
         39          5          2 -1.47424818E-02                     1_GWF-(4,8,28)  7.88929063E-02                     1_GWF-(5,7,29)
 --------------------------------------------------------------------------------------------------------------------------------------




 Solution SLN_1 summary
 ----------------------------------------------------------------------
 Total formulate time:  .000000000000000 seconds
 Total solution time:   .7812500000000000E-01 seconds


 MEMORY MANAGER TOTAL STORAGE BY DATA TYPE, IN MEGABYTES
 -------------------------------
                    ALLOCATED   
 DATA TYPE           MEMORY     
 -------------------------------
 Character        4.03300000E-03
 Logical          4.40000000E-05
 Integer          4.6978480     
 Real             7.7965120     
 -------------------------------
 Total            12.498437     
 -------------------------------


 
 Run end date and time (yyyy/mm/dd hh:mm:ss): 2025/06/25 17:20:46
 Elapsed run time:  0.546 Seconds
 Normal termination of simulation.
