                                   MODFLOW 6
                U.S. GEOLOGICAL SURVEY MODULAR HYDROLOGIC MODEL
                          GROUNDWATER FLOW MODEL (GWF)
                   VERSION 6.3.0 release candidate 02/06/2022
                               ***DEVELOP MODE***

   MODFLOW 6 compiled Feb 06 2022 02:35:51 with Intel(R) Fortran Intel(R) 64
   Compiler Classic for applications running on Intel(R) 64, Version 2021.5.0
                             Build 20211109_000000

This software is preliminary or provisional and is subject to 
revision. It is being provided to meet the need for timely best 
science. The software has not received final approval by the U.S. 
Geological Survey (USGS). No warranty, expressed or implied, is made 
by the USGS or the U.S. Government as to the functionality of the 
software and related material nor shall the fact of release 
constitute any such warranty. The software is provided on the 
condition that neither the USGS nor the U.S. Government shall be held 
liable for any damages resulting from the authorized or unauthorized 
use of the software.


As a work of the United States Government, this USGS product is 
in the public domain within the United States. You can copy, 
modify, distribute, and perform the work, even for commercial 
purposes, all without asking permission. Additionally, USGS 
waives copyright and related rights in the work worldwide 
through CC0 1.0 Universal Public Domain Dedication 
(https://creativecommons.org/publicdomain/zero/1.0/).

The following GNU Lesser General Public License (LGPL) libraries
are used in this USGS product:

    SPARSKIT version 2.0
      ilut, luson, and qsplit 
      (https://www-users.cse.umn.edu/~saad/software/SPARSKIT/)

    RCM - Reverse Cuthill McKee Ordering
      (https://people.math.sc.edu/Burkardt/f_src/rcm/rcm.html)

    BLAS - Basic Linear Algebra Subprograms Level 1
      (https://people.math.sc.edu/Burkardt/f_src/blas1_d/blas1_d.html)

    SPARSEKIT - Sparse Matrix Utility Package
      amux, dperm, dvperm, rperm, and cperm
      (https://people.sc.fsu.edu/~jburkardt/f77_src/sparsekit/sparsekit.html)

The following BSD-3 License libraries are used in this USGS product:

    Modern Fortran DAG Library
      Copyright (c) 2018, Jacob Williams
      All rights reserved.
      (https://github.com/jacobwilliams/daglib)

MODFLOW 6 compiler options: /O2 /heap-arrays:0 /fpe:0 /traceback /nologo /fpp
/c /module:.\mod_temp\ /object:.\obj_temp\

System command used to initiate simulation:
mf6.exe

MODFLOW was compiled using uniform precision.

Real Variables
  KIND: 8
  TINY (smallest non-zero value):    2.225074-308
  HUGE (largest value):    1.797693+308
  PRECISION: 15
  BIT SIZE: 64

Integer Variables
  KIND: 4
  HUGE (largest value): 2147483647
  BIT SIZE: 32

Long Integer Variables
  KIND: 8
  HUGE (largest value): 9223372036854775807
  BIT SIZE: 64

Logical Variables
  KIND: 4
  BIT SIZE: 32
 

 OPENED local2.dis
 FILE TYPE:DIS6                   UNIT 1005   STATUS:OLD                 
 FORMAT:FORMATTED              ACCESS:SEQUENTIAL          
 ACTION:READ                


 OPENED local2.npf
 FILE TYPE:NPF6                   UNIT 1006   STATUS:OLD                 
 FORMAT:FORMATTED              ACCESS:SEQUENTIAL          
 ACTION:READ                


 OPENED local2.ic
 FILE TYPE:IC6                    UNIT 1007   STATUS:OLD                 
 FORMAT:FORMATTED              ACCESS:SEQUENTIAL          
 ACTION:READ                


 OPENED local2.rcha
 FILE TYPE:RCH6                   UNIT 1008   STATUS:OLD                 
 FORMAT:FORMATTED              ACCESS:SEQUENTIAL          
 ACTION:READ                


 OPENED local2.drn
 FILE TYPE:DRN6                   UNIT 1009   STATUS:OLD                 
 FORMAT:FORMATTED              ACCESS:SEQUENTIAL          
 ACTION:READ                


 OPENED local2.chd
 FILE TYPE:CHD6                   UNIT 1010   STATUS:OLD                 
 FORMAT:FORMATTED              ACCESS:SEQUENTIAL          
 ACTION:READ                


 OPENED local2_0.chd
 FILE TYPE:CHD6                   UNIT 1011   STATUS:OLD                 
 FORMAT:FORMATTED              ACCESS:SEQUENTIAL          
 ACTION:READ                


 OPENED local2.wel
 FILE TYPE:WEL6                   UNIT 1012   STATUS:OLD                 
 FORMAT:FORMATTED              ACCESS:SEQUENTIAL          
 ACTION:READ                


 OPENED local2_0.wel
 FILE TYPE:WEL6                   UNIT 1013   STATUS:OLD                 
 FORMAT:FORMATTED              ACCESS:SEQUENTIAL          
 ACTION:READ                


 OPENED local2_1.wel
 FILE TYPE:WEL6                   UNIT 1014   STATUS:OLD                 
 FORMAT:FORMATTED              ACCESS:SEQUENTIAL          
 ACTION:READ                


 OPENED local2.oc
 FILE TYPE:OC6                    UNIT 1015   STATUS:OLD                 
 FORMAT:FORMATTED              ACCESS:SEQUENTIAL          
 ACTION:READ                

 NAMEFILE OPTIONS:
    FLOWS WILL BE SAVED TO BUDGET FILE SPECIFIED IN OUTPUT CONTROL

 DIS -- STRUCTURED GRID DISCRETIZATION PACKAGE, VERSION 2 : 3/27/2014 - INPUT READ FROM UNIT 1005


 # File generated by Flopy version 3.9.3 on 08/21/2025 at 14:53:12.
 PROCESSING DISCRETIZATION OPTIONS
    MODEL LENGTH UNIT IS METERS
    XORIGIN SPECIFIED AS     1924290.00000000    
    YORIGIN SPECIFIED AS     5598620.00000000    
 END OF DISCRETIZATION OPTIONS
 PROCESSING DISCRETIZATION DIMENSIONS
    NLAY =       8
    NROW =     121
    NCOL =     151
 END OF DISCRETIZATION DIMENSIONS
 PROCESSING GRIDDATA
 END PROCESSING GRIDDATA

 THE SPECIFIED IDOMAIN RESULTS IN A REDUCED NUMBER OF CELLS.
 NUMBER OF USER NODES: 146168
 NUMBER OF NODES IN SOLUTION: 77763



 NPF -- NODE PROPERTY FLOW PACKAGE, VERSION 1, 3/30/2015 INPUT READ FROM UNIT 1006


 # File generated by Flopy version 3.9.3 on 08/21/2025 at 14:53:13.
 PROCESSING NPF OPTIONS
    SPECIFIC DISCHARGE WILL BE CALCULATED AT CELL CENTERS AND WRITTEN TO DATA-SPDIS IN BUDGET FILE WHEN REQUESTED.
 END OF NPF OPTIONS

 WEL   -- WEL PACKAGE, VERSION 8, 2/22/2014 INPUT READ FROM UNIT 1012
 # File generated by Flopy version 3.9.3 on 08/21/2025 at 14:53:13.

 PROCESSING WEL OPTIONS
 END OF WEL OPTIONS

 PROCESSING WEL DIMENSIONS
    MAXBOUND =    1162
 END OF WEL DIMENSIONS

 WEL   -- WEL PACKAGE, VERSION 8, 2/22/2014 INPUT READ FROM UNIT 1013
 # File generated by Flopy version 3.9.3 on 08/21/2025 at 14:53:13.

 PROCESSING WEL OPTIONS
 END OF WEL OPTIONS

 PROCESSING WEL DIMENSIONS
    MAXBOUND =     846
 END OF WEL DIMENSIONS

 WEL   -- WEL PACKAGE, VERSION 8, 2/22/2014 INPUT READ FROM UNIT 1014
 # File generated by Flopy version 3.9.3 on 08/21/2025 at 14:53:13.

 PROCESSING WEL OPTIONS
 END OF WEL OPTIONS

 PROCESSING WEL DIMENSIONS
    MAXBOUND =     684
 END OF WEL DIMENSIONS

 DRN   -- DRN PACKAGE, VERSION 8, 2/22/2014 INPUT READ FROM UNIT 1009
 # File generated by Flopy version 3.9.3 on 08/21/2025 at 14:53:13.

 PROCESSING DRN OPTIONS
 END OF DRN OPTIONS

 PROCESSING DRN DIMENSIONS
    MAXBOUND =     323
 END OF DRN DIMENSIONS

 RCH   -- RCH PACKAGE, VERSION 8, 2/22/2014 INPUT READ FROM UNIT 1008
 # File generated by Flopy version 3.9.3 on 08/21/2025 at 14:53:13.

 PROCESSING RCH OPTIONS
    RECHARGE INPUT WILL BE READ AS ARRAY(S).
 END OF RCHA OPTIONS

 CHD   -- CHD PACKAGE, VERSION 8, 2/22/2014 INPUT READ FROM UNIT 1010
 # File generated by Flopy version 3.9.3 on 08/21/2025 at 14:53:13.

 PROCESSING CHD OPTIONS
    FLOWS WILL BE SAVED TO BUDGET FILE SPECIFIED IN OUTPUT CONTROL
 END OF CHD OPTIONS

 PROCESSING CHD DIMENSIONS
    MAXBOUND =      83
 END OF CHD DIMENSIONS

 CHD   -- CHD PACKAGE, VERSION 8, 2/22/2014 INPUT READ FROM UNIT 1011
 # File generated by Flopy version 3.9.3 on 08/21/2025 at 14:53:13.

 PROCESSING CHD OPTIONS
    FLOWS WILL BE SAVED TO BUDGET FILE SPECIFIED IN OUTPUT CONTROL
 END OF CHD OPTIONS

 PROCESSING CHD DIMENSIONS
    MAXBOUND =    8015
 END OF CHD DIMENSIONS

 IC -- INITIAL CONDITIONS PACKAGE, VERSION 8, 3/28/2015 INPUT READ FROM UNIT 1007
 # File generated by Flopy version 3.9.3 on 08/21/2025 at 14:53:13.
 PROCESSING IC OPTIONS
 END OF IC OPTIONS
 PROCESSING GRIDDATA
 END PROCESSING GRIDDATA
 PROCESSING GRIDDATA

                ICELLTYPE = 0
 K33 not provided.  Assuming K33 = K.
 K22 not provided.  Assuming K22 = K.
 END PROCESSING GRIDDATA
    BINARY GRID INFORMATION WILL BE WRITTEN TO:
      UNIT NUMBER: 1017
      FILE NAME: C:\Users\tfo46\e_Python\e_projects\pakipaki_01\models\local2\pest\local2_template\local2.dis.grb

 OPENED C:\Users\tfo46\e_Python\e_projects\pakipaki_01\models\local2\pest\local2_template\local2.dis.grb
 FILE TYPE:DATA(BINARY)   UNIT 1017   STATUS:REPLACE             
 FORMAT:UNFORMATTED            ACCESS:STREAM              
 ACTION:READWRITE           

      THE LAST TIME STEP WILL BE PRINTED
      THE LAST TIME STEP WILL BE PRINTED
 # File generated by Flopy version 3.9.3 on 08/21/2025 at 14:53:13.

 PROCESSING OC OPTIONS

    BUDGET INFORMATION WILL BE WRITTEN TO:
      UNIT NUMBER: 1018
      FILE NAME: local2.cbc

 OPENED local2.cbc
 FILE TYPE:DATA(BINARY)   UNIT 1018   STATUS:REPLACE             
 FORMAT:UNFORMATTED            ACCESS:STREAM              
 ACTION:READWRITE           

    HEAD INFORMATION WILL BE WRITTEN TO:
      UNIT NUMBER: 1019
      FILE NAME: local2.hds

 OPENED local2.hds
 FILE TYPE:DATA(BINARY)   UNIT 1019   STATUS:REPLACE             
 FORMAT:UNFORMATTED            ACCESS:STREAM              
 ACTION:READWRITE           

 END OF OC OPTIONS

start timestep kper="1" kstp="1" mode="normal"


 BEGIN READING OUTPUT CONTROL FOR STRESS PERIOD 1
      ALL TIME STEPS WILL BE SAVED
      ALL TIME STEPS WILL BE SAVED

 END READING OUTPUT CONTROL FOR STRESS PERIOD 1

 OPENED local2.wel_mbr_stress_period_data.txt
 FILE TYPE:OPEN/CLOSE   UNIT 1020   STATUS:OLD                 
 FORMAT:FORMATTED              ACCESS:SEQUENTIAL          
 ACTION:READ                


 OPENED local2.wel_influx_stress_period_data.txt
 FILE TYPE:OPEN/CLOSE   UNIT 1021   STATUS:OLD                 
 FORMAT:FORMATTED              ACCESS:SEQUENTIAL          
 ACTION:READ                


 OPENED local2.wel_outflux_stress_period_data.txt
 FILE TYPE:OPEN/CLOSE   UNIT 1022   STATUS:OLD                 
 FORMAT:FORMATTED              ACCESS:SEQUENTIAL          
 ACTION:READ                


 OPENED local2.drn_riv_stress_period_data.txt
 FILE TYPE:OPEN/CLOSE   UNIT 1023   STATUS:OLD                 
 FORMAT:FORMATTED              ACCESS:SEQUENTIAL          
 ACTION:READ                


 OPENED local2.rcha_recharge.txt
 FILE TYPE:OPEN/CLOSE   UNIT 1024   STATUS:OLD                 
 FORMAT:FORMATTED              ACCESS:SEQUENTIAL          
 ACTION:READ                


 OPENED local2.chd_conf_stress_period_data.txt
 FILE TYPE:OPEN/CLOSE   UNIT 1025   STATUS:OLD                 
 FORMAT:FORMATTED              ACCESS:SEQUENTIAL          
 ACTION:READ                


 SLN_1 INNER ITERATION SUMMARY
 --------------------------------------------------------------------------------------------------------------------------------------
      TOTAL      OUTER      INNER                                                            MAXIMUM                                   
  ITERATION  ITERATION  ITERATION  MAXIMUM CHANGE      MAXIMUM CHANGE MODEL-(CELLID)        RESIDUAL    MAXIMUM RESIDUAL MODEL-(CELLID)
 --------------------------------------------------------------------------------------------------------------------------------------
          1          1          1       9.3892061                   1_GWF-(3,121,98)       16.704794                   1_GWF-(4,105,97)
          2          1          2      -1.0291595                    1_GWF-(1,90,33)       4.7837743                   1_GWF-(1,105,97)
          3          1          3     -0.91347744                    1_GWF-(1,64,90)       3.1294080                   1_GWF-(1,105,97)
          4          1          4     -0.74561636                    1_GWF-(1,63,92)       1.6448539                   1_GWF-(1,105,97)
          5          1          5     -0.50893795                    1_GWF-(1,60,94)      -1.2029665                   1_GWF-(5,119,98)
          6          1          6     -0.39119937                    1_GWF-(1,85,78)      -1.0042400                   1_GWF-(5,119,98)
          7          1          7     -0.48048361                    1_GWF-(1,92,87)     -0.80126676                    1_GWF-(4,31,35)
          8          1          8      0.46685352                   1_GWF-(5,120,98)      0.97540081                    1_GWF-(4,32,35)
          9          1          9      0.65986445                   1_GWF-(4,120,98)     -0.50730420                  1_GWF-(5,110,100)
         10          1         10      0.11563079                  1_GWF-(4,110,100)      -1.1898281                    1_GWF-(4,31,35)
         11          1         11      0.12161785                   1_GWF-(4,120,98)     -0.46580837                  1_GWF-(5,112,100)
         12          1         12      0.68856425                   1_GWF-(5,120,98)     -0.73562768                    1_GWF-(4,31,35)
         13          1         13     -0.66302825                   1_GWF-(4,120,99)      -1.0473764                    1_GWF-(4,31,36)
         14          1         14       1.3861275                   1_GWF-(5,120,98)     -0.76637838                  1_GWF-(4,113,100)
         15          1         15      0.15617709                  1_GWF-(4,117,100)     -0.65150230                  1_GWF-(4,113,101)
         16          1         16  9.21666460E-02                  1_GWF-(4,116,100)     -0.29401491                  1_GWF-(5,115,100)
         17          1         17     -0.15371923                  1_GWF-(4,119,100)     -0.33293113                  1_GWF-(5,115,100)
         18          1         18      0.33803430                  1_GWF-(4,118,100)     -0.35630281                  1_GWF-(5,117,100)
         19          1         19  7.58574751E-02                  1_GWF-(4,117,100)     -0.29739236                  1_GWF-(5,116,100)
         20          1         20  7.38581702E-02                  1_GWF-(4,117,101)     -0.23251244                  1_GWF-(5,113,100)
         21          1         21  7.30304015E-02                  1_GWF-(4,117,100)     -0.38832648                  1_GWF-(4,118,100)
         22          1         22 -3.35023494E-03                  1_GWF-(7,113,100)     -0.23474689                  1_GWF-(5,114,100)
         23          1         23  1.98551659E-02                  1_GWF-(4,114,101)     -0.27456646                  1_GWF-(5,118,100)
         24          1         24     -0.12115704                   1_GWF-(4,118,98)     -0.25898492                  1_GWF-(5,115,100)
         25          1         25 -9.97667809E-02                  1_GWF-(4,117,100)     -0.23235753                   1_GWF-(5,116,98)
         26          1         26      0.14654682                  1_GWF-(4,117,100)     -0.22494961                  1_GWF-(5,115,100)
         27          1         27      0.61513001                   1_GWF-(5,114,98)     -0.44788937                   1_GWF-(4,46,147)
         28          1         28  1.43914930E-02                   1_GWF-(7,48,146)     -0.19954861                   1_GWF-(5,119,98)
         29          1         29     -0.18619383                   1_GWF-(5,119,98)     -0.22523939                   1_GWF-(5,119,98)
         30          1         30       3.0926599                   1_GWF-(5,120,98)      0.12127647                  1_GWF-(4,116,100)
         31          1         31      -6.3162062                   1_GWF-(5,119,98)     -0.51220918                  1_GWF-(5,111,100)
         32          1         32      -1.4292537                   1_GWF-(5,120,98)     -0.64714568                  1_GWF-(5,114,100)
         33          1         33       12.279087                   1_GWF-(5,119,98)      0.72089127                   1_GWF-(4,46,147)
         34          1         34       46.296961                   1_GWF-(5,119,98)       4.1883424                   1_GWF-(5,120,98)
         35          1         35      -63.349628                   1_GWF-(5,119,98)      -1.2734242                   1_GWF-(4,47,148)
         36          1         36       51.475589                   1_GWF-(5,120,98)       3.1405125                   1_GWF-(5,120,98)
         37          1         37      -41.255865                   1_GWF-(5,120,98)     -0.16919743                  1_GWF-(5,109,100)
         38          1         38       5.9653977                   1_GWF-(5,119,98)      0.30081932                   1_GWF-(5,119,98)
         39          1         39      -3.7316780                   1_GWF-(5,119,98)  7.00670432E-02                  1_GWF-(4,117,100)
         40          1         40      0.30586564                   1_GWF-(5,119,98)  7.67359847E-02                   1_GWF-(4,47,148)
         41          1         41      0.75371677                   1_GWF-(5,120,98)      0.10117869                  1_GWF-(5,118,100)
         42          1         42     -0.36797985                   1_GWF-(5,120,98)      0.16829694                   1_GWF-(4,46,147)
         43          1         43 -5.04213621E-03                   1_GWF-(7,46,147)  7.07837214E-02                  1_GWF-(5,118,100)
         44          2          1      -1.7863710                   1_GWF-(1,39,102)       6.3127067                   1_GWF-(1,34,109)
         45          2          2     -0.91135496                   1_GWF-(1,33,108)       1.9848564                   1_GWF-(1,32,105)
         46          2          3     -0.54516130                   1_GWF-(1,33,106)      0.88918418                   1_GWF-(1,18,115)
         47          2          4  2.72360395E-02                   1_GWF-(1,32,107)      0.85208210                   1_GWF-(1,30,103)
         48          2          5     -0.42012556                   1_GWF-(1,29,101)     -0.43704971                   1_GWF-(1,18,115)
         49          2          6     -0.11112843                    1_GWF-(1,8,131)      0.18081186                    1_GWF-(1,6,132)
         50          2          7     -0.11246659                    1_GWF-(1,5,132)      0.13732762                    1_GWF-(1,5,133)
         51          2          8 -9.56937700E-02                    1_GWF-(1,4,133)  9.04836748E-02                    1_GWF-(1,4,135)
         52          3          1     -0.43106425                   1_GWF-(1,27,110)       1.4286606                   1_GWF-(1,27,110)
         53          3          2     -0.16730094                   1_GWF-(1,27,110)      0.34779426                   1_GWF-(1,25,112)
         54          3          3     -0.16331498                   1_GWF-(1,25,111)     -0.31713933                   1_GWF-(1,27,111)
         55          3          4      0.29560204                    1_GWF-(1,4,149)      0.50893568                    1_GWF-(1,5,149)
         56          3          5     -0.55063122                    1_GWF-(1,4,149)  8.64042194E-02                    1_GWF-(1,9,149)
         57          3          6     -0.11669688                    1_GWF-(1,4,147)  6.31585620E-02                   1_GWF-(1,51,102)
         58          3          7 -8.69057565E-02                    1_GWF-(1,4,147) -5.04496606E-02                   1_GWF-(1,25,112)
         59          4          1     -0.11225778                    1_GWF-(3,8,144)      0.40683964                   1_GWF-(1,15,115)
         60          4          2 -4.70376875E-02                   1_GWF-(1,14,114)  8.78620981E-02                   1_GWF-(1,14,117)
         61          5          1 -2.95494469E-02                   1_GWF-(1,10,115)      0.12716743                   1_GWF-(1,11,116)
         62          5          2     -0.14679756                    1_GWF-(1,9,116)     -0.29769065                   1_GWF-(1,11,117)
         63          5          3     -0.20402100                    1_GWF-(1,4,117)     -0.38088956                   1_GWF-(1,11,117)
         64          5          4     -0.23842696                    1_GWF-(1,3,117)     -0.20256144                   1_GWF-(1,14,115)
         65          5          5      0.10538241                    1_GWF-(1,3,117)     -0.15067151                   1_GWF-(1,11,117)
         66          5          6 -7.58672027E-02                    1_GWF-(1,5,104)     -0.10826550                   1_GWF-(1,10,117)
         67          5          7 -3.74735258E-02                   1_GWF-(5,119,98) -7.40466848E-02                   1_GWF-(1,10,117)
         68          6          1 -8.17727086E-02                   1_GWF-(3,15,121)      0.35622290                   1_GWF-(1,21,107)
         69          6          2 -2.49358770E-02                   1_GWF-(1,22,107)      0.11436967                   1_GWF-(1,25,107)
         70          6          3 -2.03986695E-02                   1_GWF-(1,24,107) -5.87437370E-02                   1_GWF-(1,10,117)
 --------------------------------------------------------------------------------------------------------------------------------------


 UBDSV1 SAVING     FLOW-JA-FACE ON UNIT   1018 AT TIME STEP      1, STRESS PERIOD      1
 UBDSV06 SAVING       DATA-SPDIS IN MODEL LOCAL2           PACKAGE NPF             CONNECTED TO MODEL LOCAL2           PACKAGE NPF              ON UNIT   1018 AT TIME STEP      1, STRESS PERIOD      1
 UBDSV06 SAVING              WEL IN MODEL LOCAL2           PACKAGE LOCAL2          CONNECTED TO MODEL LOCAL2           PACKAGE MBR              ON UNIT   1018 AT TIME STEP      1, STRESS PERIOD      1
 UBDSV06 SAVING              WEL IN MODEL LOCAL2           PACKAGE LOCAL2          CONNECTED TO MODEL LOCAL2           PACKAGE INFLUX           ON UNIT   1018 AT TIME STEP      1, STRESS PERIOD      1
 UBDSV06 SAVING              WEL IN MODEL LOCAL2           PACKAGE LOCAL2          CONNECTED TO MODEL LOCAL2           PACKAGE OUTFLUX          ON UNIT   1018 AT TIME STEP      1, STRESS PERIOD      1
 UBDSV06 SAVING              DRN IN MODEL LOCAL2           PACKAGE LOCAL2          CONNECTED TO MODEL LOCAL2           PACKAGE DRN_R            ON UNIT   1018 AT TIME STEP      1, STRESS PERIOD      1
 UBDSV06 SAVING             RCHA IN MODEL LOCAL2           PACKAGE LOCAL2          CONNECTED TO MODEL LOCAL2           PACKAGE RCH              ON UNIT   1018 AT TIME STEP      1, STRESS PERIOD      1
 UBDSV06 SAVING              CHD IN MODEL LOCAL2           PACKAGE LOCAL2          CONNECTED TO MODEL LOCAL2           PACKAGE CHD_PW           ON UNIT   1018 AT TIME STEP      1, STRESS PERIOD      1
 UBDSV06 SAVING              CHD IN MODEL LOCAL2           PACKAGE LOCAL2          CONNECTED TO MODEL LOCAL2           PACKAGE CHD_CONF         ON UNIT   1018 AT TIME STEP      1, STRESS PERIOD      1

 HEAD WILL BE SAVED ON UNIT 1019 AT END OF TIME STEP    1, STRESS PERIOD    1


  VOLUME BUDGET FOR ENTIRE MODEL AT END OF TIME STEP    1, STRESS PERIOD   1
  ---------------------------------------------------------------------------------------------------

     CUMULATIVE VOLUME      L**3       RATES FOR THIS TIME STEP      L**3/T          PACKAGE NAME    
     ------------------                 ------------------------                     ----------------

           IN:                                      IN:
           ---                                      ---
                 WEL =        2324.0000                   WEL =        2324.0000     MBR                              
                 WEL =         846.0000                   WEL =         846.0000     INFLUX                           
                 WEL =           6.8400                   WEL =           6.8400     OUTFLUX                          
                 DRN =           0.0000                   DRN =           0.0000     DRN_R                            
                RCHA =          99.8700                  RCHA =          99.8700     RCH                              
                 CHD =         729.5496                   CHD =         729.5496     CHD_PW                           
                 CHD =         122.5139                   CHD =         122.5139     CHD_CONF                         

            TOTAL IN =        4128.7734              TOTAL IN =        4128.7734

          OUT:                                     OUT:
          ----                                     ----
                 WEL =           0.0000                   WEL =           0.0000     MBR                              
                 WEL =           0.0000                   WEL =           0.0000     INFLUX                           
                 WEL =           0.0000                   WEL =           0.0000     OUTFLUX                          
                 DRN =        3124.2742                   DRN =        3124.2742     DRN_R                            
                RCHA =           0.0000                  RCHA =           0.0000     RCH                              
                 CHD =        1132.3482                   CHD =        1132.3482     CHD_PW                           
                 CHD =          14.2099                   CHD =          14.2099     CHD_CONF                         

           TOTAL OUT =        4270.8323             TOTAL OUT =        4270.8323

            IN - OUT =        -142.0589              IN - OUT =        -142.0589

 PERCENT DISCREPANCY =          -3.38     PERCENT DISCREPANCY =          -3.38




         TIME SUMMARY AT END OF TIME STEP    1 IN STRESS PERIOD    1
                    SECONDS     MINUTES      HOURS       DAYS        YEARS
                    -----------------------------------------------------------
   TIME STEP LENGTH  86400.      1440.0      24.000      1.0000     2.73785E-03
 STRESS PERIOD TIME  86400.      1440.0      24.000      1.0000     2.73785E-03
         TOTAL TIME  86400.      1440.0      24.000      1.0000     2.73785E-03


end timestep

