                                   MODFLOW 6
                U.S. GEOLOGICAL SURVEY MODULAR HYDROLOGIC MODEL
                   VERSION 6.3.0 release candidate 02/06/2022
                               ***DEVELOP MODE***

   MODFLOW 6 compiled Feb 06 2022 02:35:51 with Intel(R) Fortran Intel(R) 64
   Compiler Classic for applications running on Intel(R) 64, Version 2021.5.0
                             Build 20211109_000000

This software is preliminary or provisional and is subject to 
revision. It is being provided to meet the need for timely best 
science. The software has not received final approval by the U.S. 
Geological Survey (USGS). No warranty, expressed or implied, is made 
by the USGS or the U.S. Government as to the functionality of the 
software and related material nor shall the fact of release 
constitute any such warranty. The software is provided on the 
condition that neither the USGS nor the U.S. Government shall be held 
liable for any damages resulting from the authorized or unauthorized 
use of the software.


As a work of the United States Government, this USGS product is 
in the public domain within the United States. You can copy, 
modify, distribute, and perform the work, even for commercial 
purposes, all without asking permission. Additionally, USGS 
waives copyright and related rights in the work worldwide 
through CC0 1.0 Universal Public Domain Dedication 
(https://creativecommons.org/publicdomain/zero/1.0/).

The following GNU Lesser General Public License (LGPL) libraries
are used in this USGS product:

    SPARSKIT version 2.0
      ilut, luson, and qsplit 
      (https://www-users.cse.umn.edu/~saad/software/SPARSKIT/)

    RCM - Reverse Cuthill McKee Ordering
      (https://people.math.sc.edu/Burkardt/f_src/rcm/rcm.html)

    BLAS - Basic Linear Algebra Subprograms Level 1
      (https://people.math.sc.edu/Burkardt/f_src/blas1_d/blas1_d.html)

    SPARSEKIT - Sparse Matrix Utility Package
      amux, dperm, dvperm, rperm, and cperm
      (https://people.sc.fsu.edu/~jburkardt/f77_src/sparsekit/sparsekit.html)

The following BSD-3 License libraries are used in this USGS product:

    Modern Fortran DAG Library
      Copyright (c) 2018, Jacob Williams
      All rights reserved.
      (https://github.com/jacobwilliams/daglib)

MODFLOW 6 compiler options: /O2 /heap-arrays:0 /fpe:0 /traceback /nologo /fpp
/c /module:.\mod_temp\ /object:.\obj_temp\

System command used to initiate simulation:
mf6.exe

MODFLOW was compiled using uniform precision.

Real Variables
  KIND: 8
  TINY (smallest non-zero value):    2.225074-308
  HUGE (largest value):    1.797693+308
  PRECISION: 15
  BIT SIZE: 64

Integer Variables
  KIND: 4
  HUGE (largest value): 2147483647
  BIT SIZE: 32

Long Integer Variables
  KIND: 8
  HUGE (largest value): 9223372036854775807
  BIT SIZE: 64

Logical Variables
  KIND: 4
  BIT SIZE: 32
 

 OPENED mfsim.nam
 FILE TYPE:NAM   UNIT 1001   STATUS:OLD                 
 FORMAT:FORMATTED              ACCESS:SEQUENTIAL          
 ACTION:READ                

 # File generated by Flopy version 3.9.3 on 08/21/2025 at 14:53:12.

 READING SIMULATION OPTIONS
 END OF SIMULATION OPTIONS

 READING SIMULATION TIMING

 OPENED local2.tdis
 FILE TYPE:TDIS   UNIT 1002   STATUS:OLD                 
 FORMAT:FORMATTED              ACCESS:SEQUENTIAL          
 ACTION:READ                


 TDIS -- TEMPORAL DISCRETIZATION PACKAGE,
 VERSION 1 : 11/13/2014 - INPUT READ FROM UNIT 1002
 # File generated by Flopy version 3.9.3 on 08/21/2025 at 14:53:12.
 PROCESSING TDIS OPTIONS
    SIMULATION TIME UNIT IS DAYS
 END OF TDIS OPTIONS
 PROCESSING TDIS DIMENSIONS
    1 STRESS PERIOD(S) IN SIMULATION
 END OF TDIS DIMENSIONS
 PROCESSING TDIS PERIODDATA


 STRESS PERIOD     LENGTH       TIME STEPS     MULTIPLIER FOR DELT
 ----------------------------------------------------------------------------
        1         1.000000          1                    1.000
 END OF TDIS PERIODDATA
 END OF SIMULATION TIMING

 READING SIMULATION MODELS
    GWF6 model LOCAL2 will be created as model 1
 END OF SIMULATION MODELS

 READING SIMULATION EXCHANGES
 END OF SIMULATION EXCHANGES

 READING SOLUTIONGROUP

 Creating solution: SLN_1           

 OPENED local2.ims
 FILE TYPE:IMS   UNIT 1016   STATUS:OLD                 
 FORMAT:FORMATTED              ACCESS:SEQUENTIAL          
 ACTION:READ                

 END OF SIMULATION SOLUTIONGROUP

PROCESSING MODEL CONNECTIONS

 IMS -- ITERATIVE MODEL SOLUTION PACKAGE, VERSION 6, 4/28/2017
         INPUT READ FROM UNIT 1016
 # File generated by Flopy version 3.9.3 on 08/21/2025 at 14:53:12.

 PROCESSING IMS OPTIONS
 COMPLEX OPTION:
 DEFAULT SOLVER INPUT VALUES REFLECT STRONGLY NONLINEAR MODEL
 END OF IMS OPTIONS
 **UNDER-RELAXATION WILL BE USED***
 
 ***IMS LINEAR SOLVER WILL BE USED***

 IMSLINEAR -- UNSTRUCTURED LINEAR SOLUTION PACKAGE, VERSION 8, 04/28/2017
 
 An asymmetric matrix will be solved

 OUTER ITERATION CONVERGENCE CRITERION    (DVCLOSE) =    0.100000E+00
 MAXIMUM NUMBER OF OUTER ITERATIONS        (MXITER) = 100
 SOLVER PRINTOUT INDEX                     (IPRIMS) = 2
 NONLINEAR ITERATION METHOD            (NONLINMETH) = 3
 LINEAR SOLUTION METHOD                   (LINMETH) = 1
 UNDER-RELAXATION WEIGHT REDUCTION FACTOR   (THETA) =    0.800000E+00
 UNDER-RELAXATION WEIGHT INCREASE INCREMENT (KAPPA) =    0.100000E-03
 UNDER-RELAXATION PREVIOUS HISTORY FACTOR   (GAMMA) =    0.000000E+00
 UNDER-RELAXATION MOMENTUM TERM         (AMOMENTUM) =    0.000000E+00
 MAXIMUM NUMBER OF BACKTRACKS            (NUMTRACK) = 20
 BACKTRACKING TOLERANCE FACTOR               (BTOL) =    0.105000E+01
 BACKTRACKING REDUCTION FACTOR             (BREDUC) =    0.100000E+00
 BACKTRACKING RESIDUAL LIMIT              (RES_LIM) =    0.200000E-02

       SOLUTION BY THE BICONJUGATE-GRADIENT STABILIZED METHOD
 ------------------------------------------------------------------
 MAXIMUM OF 100 CALLS OF SOLUTION ROUTINE
 MAXIMUM OF 500 INTERNAL ITERATIONS PER CALL TO SOLUTION ROUTINE
 LINEAR ACCELERATION METHOD            = BCGS      
 MATRIX PRECONDITIONING TYPE           = INCOMPLETE LUT      
 MATRIX SCALING APPROACH               = NO SCALING          
 MATRIX REORDERING APPROACH            = ORIGINAL ORDERING        
 NUMBER OF ORTHOGONALIZATIONS          = 2
 HEAD CHANGE CRITERION FOR CLOSURE     =    0.10000E+00
 RESIDUAL CHANGE CRITERION FOR CLOSURE =    0.10000E+00
 RESIDUAL CONVERGENCE OPTION           = 0
 RESIDUAL CONVERGENCE NORM             = INFINITY NORM   
 RELAXATION FACTOR                     =    0.00000E+00
 NUMBER OF LEVELS                      =              5
 DROP TOLERANCE                        =    0.10000E-03


 
    Solving:  Stress period:     1    Time step:     1
 
1
                            STRESS PERIOD NO. 1, LENGTH =   1.000000    
                            -----------------------------------------------
                            NUMBER OF TIME STEPS = 1
                            MULTIPLIER FOR DELT =     1.000
                            INITIAL TIME STEP SIZE =   1.000000    

 SLN_1 OUTER ITERATION SUMMARY
 ----------------------------------------------------------------------------------------------------------------------------------------------------------------
                                OUTER      INNER  BACKTRACK  BACKTRACK        INCOMING        OUTGOING                    STEP   MAXIMUM CHANGE MODEL-(CELLID) OR
 OUTER ITERATION STEP       ITERATION  ITERATION       FLAG ITERATIONS        RESIDUAL        RESIDUAL  MAXIMUM CHANGE SUCCESS             MODEL-PACKAGE-(NUMBER)
 ----------------------------------------------------------------------------------------------------------------------------------------------------------------
 Backtracking                       1                     0          0       10238.917       10238.917                       *                                   
 Model                              1         43                                                             14.020496                           1_GWF-(3,121,99)
 Backtracking                       2                     0          0       289.47112       289.47112                       *                                   
 Model                              2          8                                                            -2.7953565                           1_GWF-(1,35,107)
 Backtracking                       3                     0          0       54.864359       54.864359                       *                                   
 Model                              3          7                                                            -1.0637871                            1_GWF-(1,8,144)
 Backtracking                       4                     0          0       19.365351       19.365351                       *                                   
 Model                              4          2                                                           -0.14492281                           1_GWF-(1,15,113)
 Backtracking                       5                     0          0       5.5068135       5.5068135                       *                                   
 Model                              5          7                                                           -0.53501546                            1_GWF-(1,4,115)
 Backtracking                       6                     4          0       105.56505       105.56505                       *                                   
 Model                              6          3                                                       -8.32829673E-02       *                   1_GWF-(1,19,106)
 ----------------------------------------------------------------------------------------------------------------------------------------------------------------


 6 CALLS TO NUMERICAL SOLUTION IN TIME STEP 1 STRESS PERIOD 1
 70 TOTAL ITERATIONS

 SLN_1 INNER ITERATION SUMMARY
 --------------------------------------------------------------------------------------------------------------------------------------
      TOTAL      OUTER      INNER                                                            MAXIMUM                                   
  ITERATION  ITERATION  ITERATION  MAXIMUM CHANGE      MAXIMUM CHANGE MODEL-(CELLID)        RESIDUAL    MAXIMUM RESIDUAL MODEL-(CELLID)
 --------------------------------------------------------------------------------------------------------------------------------------
          1          1          1       9.3892061                   1_GWF-(3,121,98)       16.704794                   1_GWF-(4,105,97)
          2          1          2      -1.0291595                    1_GWF-(1,90,33)       4.7837743                   1_GWF-(1,105,97)
          3          1          3     -0.91347744                    1_GWF-(1,64,90)       3.1294080                   1_GWF-(1,105,97)
          4          1          4     -0.74561636                    1_GWF-(1,63,92)       1.6448539                   1_GWF-(1,105,97)
          5          1          5     -0.50893795                    1_GWF-(1,60,94)      -1.2029665                   1_GWF-(5,119,98)
          6          1          6     -0.39119937                    1_GWF-(1,85,78)      -1.0042400                   1_GWF-(5,119,98)
          7          1          7     -0.48048361                    1_GWF-(1,92,87)     -0.80126676                    1_GWF-(4,31,35)
          8          1          8      0.46685352                   1_GWF-(5,120,98)      0.97540081                    1_GWF-(4,32,35)
          9          1          9      0.65986445                   1_GWF-(4,120,98)     -0.50730420                  1_GWF-(5,110,100)
         10          1         10      0.11563079                  1_GWF-(4,110,100)      -1.1898281                    1_GWF-(4,31,35)
         11          1         11      0.12161785                   1_GWF-(4,120,98)     -0.46580837                  1_GWF-(5,112,100)
         12          1         12      0.68856425                   1_GWF-(5,120,98)     -0.73562768                    1_GWF-(4,31,35)
         13          1         13     -0.66302825                   1_GWF-(4,120,99)      -1.0473764                    1_GWF-(4,31,36)
         14          1         14       1.3861275                   1_GWF-(5,120,98)     -0.76637838                  1_GWF-(4,113,100)
         15          1         15      0.15617709                  1_GWF-(4,117,100)     -0.65150230                  1_GWF-(4,113,101)
         16          1         16  9.21666460E-02                  1_GWF-(4,116,100)     -0.29401491                  1_GWF-(5,115,100)
         17          1         17     -0.15371923                  1_GWF-(4,119,100)     -0.33293113                  1_GWF-(5,115,100)
         18          1         18      0.33803430                  1_GWF-(4,118,100)     -0.35630281                  1_GWF-(5,117,100)
         19          1         19  7.58574751E-02                  1_GWF-(4,117,100)     -0.29739236                  1_GWF-(5,116,100)
         20          1         20  7.38581702E-02                  1_GWF-(4,117,101)     -0.23251244                  1_GWF-(5,113,100)
         21          1         21  7.30304015E-02                  1_GWF-(4,117,100)     -0.38832648                  1_GWF-(4,118,100)
         22          1         22 -3.35023494E-03                  1_GWF-(7,113,100)     -0.23474689                  1_GWF-(5,114,100)
         23          1         23  1.98551659E-02                  1_GWF-(4,114,101)     -0.27456646                  1_GWF-(5,118,100)
         24          1         24     -0.12115704                   1_GWF-(4,118,98)     -0.25898492                  1_GWF-(5,115,100)
         25          1         25 -9.97667809E-02                  1_GWF-(4,117,100)     -0.23235753                   1_GWF-(5,116,98)
         26          1         26      0.14654682                  1_GWF-(4,117,100)     -0.22494961                  1_GWF-(5,115,100)
         27          1         27      0.61513001                   1_GWF-(5,114,98)     -0.44788937                   1_GWF-(4,46,147)
         28          1         28  1.43914930E-02                   1_GWF-(7,48,146)     -0.19954861                   1_GWF-(5,119,98)
         29          1         29     -0.18619383                   1_GWF-(5,119,98)     -0.22523939                   1_GWF-(5,119,98)
         30          1         30       3.0926599                   1_GWF-(5,120,98)      0.12127647                  1_GWF-(4,116,100)
         31          1         31      -6.3162062                   1_GWF-(5,119,98)     -0.51220918                  1_GWF-(5,111,100)
         32          1         32      -1.4292537                   1_GWF-(5,120,98)     -0.64714568                  1_GWF-(5,114,100)
         33          1         33       12.279087                   1_GWF-(5,119,98)      0.72089127                   1_GWF-(4,46,147)
         34          1         34       46.296961                   1_GWF-(5,119,98)       4.1883424                   1_GWF-(5,120,98)
         35          1         35      -63.349628                   1_GWF-(5,119,98)      -1.2734242                   1_GWF-(4,47,148)
         36          1         36       51.475589                   1_GWF-(5,120,98)       3.1405125                   1_GWF-(5,120,98)
         37          1         37      -41.255865                   1_GWF-(5,120,98)     -0.16919743                  1_GWF-(5,109,100)
         38          1         38       5.9653977                   1_GWF-(5,119,98)      0.30081932                   1_GWF-(5,119,98)
         39          1         39      -3.7316780                   1_GWF-(5,119,98)  7.00670432E-02                  1_GWF-(4,117,100)
         40          1         40      0.30586564                   1_GWF-(5,119,98)  7.67359847E-02                   1_GWF-(4,47,148)
         41          1         41      0.75371677                   1_GWF-(5,120,98)      0.10117869                  1_GWF-(5,118,100)
         42          1         42     -0.36797985                   1_GWF-(5,120,98)      0.16829694                   1_GWF-(4,46,147)
         43          1         43 -5.04213621E-03                   1_GWF-(7,46,147)  7.07837214E-02                  1_GWF-(5,118,100)
         44          2          1      -1.7863710                   1_GWF-(1,39,102)       6.3127067                   1_GWF-(1,34,109)
         45          2          2     -0.91135496                   1_GWF-(1,33,108)       1.9848564                   1_GWF-(1,32,105)
         46          2          3     -0.54516130                   1_GWF-(1,33,106)      0.88918418                   1_GWF-(1,18,115)
         47          2          4  2.72360395E-02                   1_GWF-(1,32,107)      0.85208210                   1_GWF-(1,30,103)
         48          2          5     -0.42012556                   1_GWF-(1,29,101)     -0.43704971                   1_GWF-(1,18,115)
         49          2          6     -0.11112843                    1_GWF-(1,8,131)      0.18081186                    1_GWF-(1,6,132)
         50          2          7     -0.11246659                    1_GWF-(1,5,132)      0.13732762                    1_GWF-(1,5,133)
         51          2          8 -9.56937700E-02                    1_GWF-(1,4,133)  9.04836748E-02                    1_GWF-(1,4,135)
         52          3          1     -0.43106425                   1_GWF-(1,27,110)       1.4286606                   1_GWF-(1,27,110)
         53          3          2     -0.16730094                   1_GWF-(1,27,110)      0.34779426                   1_GWF-(1,25,112)
         54          3          3     -0.16331498                   1_GWF-(1,25,111)     -0.31713933                   1_GWF-(1,27,111)
         55          3          4      0.29560204                    1_GWF-(1,4,149)      0.50893568                    1_GWF-(1,5,149)
         56          3          5     -0.55063122                    1_GWF-(1,4,149)  8.64042194E-02                    1_GWF-(1,9,149)
         57          3          6     -0.11669688                    1_GWF-(1,4,147)  6.31585620E-02                   1_GWF-(1,51,102)
         58          3          7 -8.69057565E-02                    1_GWF-(1,4,147) -5.04496606E-02                   1_GWF-(1,25,112)
         59          4          1     -0.11225778                    1_GWF-(3,8,144)      0.40683964                   1_GWF-(1,15,115)
         60          4          2 -4.70376875E-02                   1_GWF-(1,14,114)  8.78620981E-02                   1_GWF-(1,14,117)
         61          5          1 -2.95494469E-02                   1_GWF-(1,10,115)      0.12716743                   1_GWF-(1,11,116)
         62          5          2     -0.14679756                    1_GWF-(1,9,116)     -0.29769065                   1_GWF-(1,11,117)
         63          5          3     -0.20402100                    1_GWF-(1,4,117)     -0.38088956                   1_GWF-(1,11,117)
         64          5          4     -0.23842696                    1_GWF-(1,3,117)     -0.20256144                   1_GWF-(1,14,115)
         65          5          5      0.10538241                    1_GWF-(1,3,117)     -0.15067151                   1_GWF-(1,11,117)
         66          5          6 -7.58672027E-02                    1_GWF-(1,5,104)     -0.10826550                   1_GWF-(1,10,117)
         67          5          7 -3.74735258E-02                   1_GWF-(5,119,98) -7.40466848E-02                   1_GWF-(1,10,117)
         68          6          1 -8.17727086E-02                   1_GWF-(3,15,121)      0.35622290                   1_GWF-(1,21,107)
         69          6          2 -2.49358770E-02                   1_GWF-(1,22,107)      0.11436967                   1_GWF-(1,25,107)
         70          6          3 -2.03986695E-02                   1_GWF-(1,24,107) -5.87437370E-02                   1_GWF-(1,10,117)
 --------------------------------------------------------------------------------------------------------------------------------------




 Solution SLN_1 summary
 ----------------------------------------------------------------------
 Total formulate time:  .7812500000000000E-01 seconds
 Total solution time:   .3437500000000000 seconds


 MEMORY MANAGER TOTAL STORAGE BY DATA TYPE, IN MEGABYTES
 -------------------------------
                    ALLOCATED   
 DATA TYPE           MEMORY     
 -------------------------------
 Character        4.03300000E-03
 Logical          4.40000000E-05
 Integer          26.979520     
 Real             45.761440     
 -------------------------------
 Total            72.745037     
 -------------------------------


 
 Run end date and time (yyyy/mm/dd hh:mm:ss): 2025/08/22 13:45:16
 Elapsed run time:  2.262 Seconds
 Normal termination of simulation.
